<additional>
    <flow id="-E2_0.qPKW.0" departSpeed="max" departPos="last" departLane="best" number="10" begin="0" end="300">
        <routeDistribution routes="-E2_0_27849848#8_0.qPKW.0" probabilities="10"/>
    </flow>
    <flow id="-E2_1.qPKW.0" departSpeed="max" departPos="last" departLane="best" number="32" begin="0" end="300">
        <routeDistribution routes="-E2_1_-E0_1.qPKW.0" probabilities="32"/>
    </flow>
    <flow id="-E2_2.qPKW.0" departSpeed="max" departPos="last" departLane="best" number="36" begin="0" end="300">
        <routeDistribution routes="-E2_2_-E0_2.qPKW.0" probabilities="36"/>
    </flow>
    <flow id="-E2_3.qPKW.0" departSpeed="max" departPos="last" departLane="best" number="36" begin="0" end="300">
        <routeDistribution routes="-E2_3_-E0_3.qPKW.0" probabilities="36"/>
    </flow>
    <flow id="162959647#1_0.qPKW.0" departSpeed="max" departPos="last" departLane="best" number="12" begin="0" end="300">
        <routeDistribution routes="162959647#1_0_E2_1.qPKW.0 162959647#1_0_27849848#8_0.qPKW.0" probabilities="10 2"/>
    </flow>
    <flow id="162959647#1_1.qPKW.0" departSpeed="max" departPos="last" departLane="best" number="8" begin="0" end="300">
        <routeDistribution routes="162959647#1_1_27849848#8_1.qPKW.0" probabilities="8"/>
    </flow>
    <flow id="236838900#0_0.qPKW.0" departSpeed="max" departPos="last" departLane="best" number="5" begin="0" end="300">
        <routeDistribution routes="236838900#0_0_-E0_1.qPKW.0" probabilities="5"/>
    </flow>
    <flow id="236838900#0_1.qPKW.0" departSpeed="max" departPos="last" departLane="best" number="29" begin="0" end="300">
        <routeDistribution routes="236838900#0_1_27393204#3_0.qPKW.0 236838900#0_1_27393204#3_1.qPKW.0 236838900#0_1_430418021_1.qPKW.0 236838900#0_1_27849848#8_1.qPKW.0" probabilities="9 5 11 4"/>
    </flow>
    <flow id="E0_0.qPKW.0" departSpeed="max" departPos="last" departLane="best" number="11" begin="0" end="300">
        <routeDistribution routes="E0_0_E2_0.qPKW.0 E0_0_27393204#3_0.qPKW.0" probabilities="3 8"/>
    </flow>
    <flow id="E0_1.qPKW.0" departSpeed="max" departPos="last" departLane="best" number="44" begin="0" end="300">
        <routeDistribution routes="E0_1_E2_1.qPKW.0" probabilities="44"/>
    </flow>
    <flow id="E0_2.qPKW.0" departSpeed="max" departPos="last" departLane="best" number="43" begin="0" end="300">
        <routeDistribution routes="E0_2_E2_2.qPKW.0" probabilities="43"/>
    </flow>
    <flow id="E0_3.qPKW.0" departSpeed="max" departPos="last" departLane="best" number="34" begin="0" end="300">
        <routeDistribution routes="E0_3_E2_3.qPKW.0" probabilities="34"/>
    </flow>
    <flow id="E9_0.qPKW.0" departSpeed="max" departPos="last" departLane="best" number="5" begin="0" end="300">
        <routeDistribution routes="E9_0_27849848#8_0.qPKW.0" probabilities="5"/>
    </flow>
    <flow id="E9_1.qPKW.0" departSpeed="max" departPos="last" departLane="best" number="9" begin="0" end="300">
        <routeDistribution routes="E9_1_E2_3.qPKW.0" probabilities="9"/>
    </flow>
    <flow id="-E2_1.qPKW.5" departSpeed="max" departPos="last" departLane="best" number="37" begin="300" end="600">
        <routeDistribution routes="-E2_1_-E0_1.qPKW.5" probabilities="37"/>
    </flow>
    <flow id="-E2_2.qPKW.5" departSpeed="max" departPos="last" departLane="best" number="48" begin="300" end="600">
        <routeDistribution routes="-E2_2_-E0_2.qPKW.5" probabilities="48"/>
    </flow>
    <flow id="-E2_3.qPKW.5" departSpeed="max" departPos="last" departLane="best" number="39" begin="300" end="600">
        <routeDistribution routes="-E2_3_-E0_3.qPKW.5" probabilities="39"/>
    </flow>
    <flow id="162959647#1_0.qPKW.5" departSpeed="max" departPos="last" departLane="best" number="23" begin="300" end="600">
        <routeDistribution routes="162959647#1_0_E2_1.qPKW.5" probabilities="23"/>
    </flow>
    <flow id="162959647#1_1.qPKW.5" departSpeed="max" departPos="last" departLane="best" number="2" begin="300" end="600">
        <routeDistribution routes="162959647#1_1_-E0_3.qPKW.5" probabilities="2"/>
    </flow>
    <flow id="236838900#0_0.qPKW.5" departSpeed="max" departPos="last" departLane="best" number="5" begin="300" end="600">
        <routeDistribution routes="236838900#0_0_-E0_1.qPKW.5" probabilities="5"/>
    </flow>
    <flow id="236838900#0_1.qPKW.5" departSpeed="max" departPos="last" departLane="best" number="9" begin="300" end="600">
        <routeDistribution routes="236838900#0_1_27393204#3_1.qPKW.5" probabilities="9"/>
    </flow>
    <flow id="408322117#6_0.qPKW.5" departSpeed="max" departPos="last" departLane="best" number="3" begin="300" end="600">
        <routeDistribution routes="408322117#6_0_27393204#3_0.qPKW.5" probabilities="3"/>
    </flow>
    <flow id="E0_0.qPKW.5" departSpeed="max" departPos="last" departLane="best" number="25" begin="300" end="600">
        <routeDistribution routes="E0_0_E2_0.qPKW.5 E0_0_27393204#3_0.qPKW.5 E0_0_430418021_1.qPKW.5 E0_0_27849848#8_1.qPKW.5 E0_0_E2_3.qPKW.5" probabilities="3 8 5 8 1"/>
    </flow>
    <flow id="E0_1.qPKW.5" departSpeed="max" departPos="last" departLane="best" number="25" begin="300" end="600">
        <routeDistribution routes="E0_1_E2_1.qPKW.5" probabilities="25"/>
    </flow>
    <flow id="E0_2.qPKW.5" departSpeed="max" departPos="last" departLane="best" number="42" begin="300" end="600">
        <routeDistribution routes="E0_2_E2_2.qPKW.5" probabilities="42"/>
    </flow>
    <flow id="E0_3.qPKW.5" departSpeed="max" departPos="last" departLane="best" number="31" begin="300" end="600">
        <routeDistribution routes="E0_3_E2_3.qPKW.5" probabilities="31"/>
    </flow>
    <flow id="E9_0.qPKW.5" departSpeed="max" departPos="last" departLane="best" number="7" begin="300" end="600">
        <routeDistribution routes="E9_0_27849848#8_0.qPKW.5" probabilities="7"/>
    </flow>
    <flow id="E9_1.qPKW.5" departSpeed="max" departPos="last" departLane="best" number="5" begin="300" end="600">
        <routeDistribution routes="E9_1_E2_3.qPKW.5" probabilities="5"/>
    </flow>
    <flow id="-E2_1.qPKW.10" departSpeed="max" departPos="last" departLane="best" number="31" begin="600" end="900">
        <routeDistribution routes="-E2_1_-E0_1.qPKW.10" probabilities="31"/>
    </flow>
    <flow id="-E2_2.qPKW.10" departSpeed="max" departPos="last" departLane="best" number="50" begin="600" end="900">
        <routeDistribution routes="-E2_2_-E0_2.qPKW.10" probabilities="50"/>
    </flow>
    <flow id="-E2_3.qPKW.10" departSpeed="max" departPos="last" departLane="best" number="32" begin="600" end="900">
        <routeDistribution routes="-E2_3_-E0_3.qPKW.10" probabilities="32"/>
    </flow>
    <flow id="162959647#1_0.qPKW.10" departSpeed="max" departPos="last" departLane="best" number="12" begin="600" end="900">
        <routeDistribution routes="162959647#1_0_E2_1.qPKW.10 162959647#1_0_27849848#8_0.qPKW.10" probabilities="9 3"/>
    </flow>
    <flow id="162959647#1_1.qPKW.10" departSpeed="max" departPos="last" departLane="best" number="1" begin="600" end="900">
        <routeDistribution routes="162959647#1_1_27849848#8_1.qPKW.10" probabilities="1"/>
    </flow>
    <flow id="236838900#0_0.qPKW.10" departSpeed="max" departPos="last" departLane="best" number="16" begin="600" end="900">
        <routeDistribution routes="236838900#0_0_-E0_1.qPKW.10 236838900#0_0_-E0_2.qPKW.10" probabilities="12 4"/>
    </flow>
    <flow id="236838900#0_1.qPKW.10" departSpeed="max" departPos="last" departLane="best" number="14" begin="600" end="900">
        <routeDistribution routes="236838900#0_1_430418021_1.qPKW.10" probabilities="14"/>
    </flow>
    <flow id="408322117#6_1.qPKW.10" departSpeed="max" departPos="last" departLane="best" number="19" begin="600" end="900">
        <routeDistribution routes="408322117#6_1_430418021_1.qPKW.10 408322117#6_1_27849848#8_1.qPKW.10 408322117#6_1_-E0_3.qPKW.10" probabilities="4 1 14"/>
    </flow>
    <flow id="E0_0.qPKW.10" departSpeed="max" departPos="last" departLane="best" number="15" begin="600" end="900">
        <routeDistribution routes="E0_0_E2_0.qPKW.10 E0_0_27393204#3_0.qPKW.10" probabilities="1 14"/>
    </flow>
    <flow id="E0_1.qPKW.10" departSpeed="max" departPos="last" departLane="best" number="33" begin="600" end="900">
        <routeDistribution routes="E0_1_E2_1.qPKW.10" probabilities="33"/>
    </flow>
    <flow id="E0_2.qPKW.10" departSpeed="max" departPos="last" departLane="best" number="44" begin="600" end="900">
        <routeDistribution routes="E0_2_E2_2.qPKW.10" probabilities="44"/>
    </flow>
    <flow id="E0_3.qPKW.10" departSpeed="max" departPos="last" departLane="best" number="34" begin="600" end="900">
        <routeDistribution routes="E0_3_E2_3.qPKW.10" probabilities="34"/>
    </flow>
    <flow id="E9_0.qPKW.10" departSpeed="max" departPos="last" departLane="best" number="6" begin="600" end="900">
        <routeDistribution routes="E9_0_27849848#8_0.qPKW.10" probabilities="6"/>
    </flow>
    <flow id="E9_1.qPKW.10" departSpeed="max" departPos="last" departLane="best" number="8" begin="600" end="900">
        <routeDistribution routes="E9_1_27393204#3_1.qPKW.10 E9_1_E2_3.qPKW.10" probabilities="5 3"/>
    </flow>
    <flow id="-E2_1.qPKW.15" departSpeed="max" departPos="last" departLane="best" number="36" begin="900" end="1200">
        <routeDistribution routes="-E2_1_-E0_1.qPKW.15 -E2_1_27393204#3_1.qPKW.15" probabilities="35 1"/>
    </flow>
    <flow id="-E2_2.qPKW.15" departSpeed="max" departPos="last" departLane="best" number="41" begin="900" end="1200">
        <routeDistribution routes="-E2_2_-E0_2.qPKW.15" probabilities="41"/>
    </flow>
    <flow id="-E2_3.qPKW.15" departSpeed="max" departPos="last" departLane="best" number="24" begin="900" end="1200">
        <routeDistribution routes="-E2_3_-E0_3.qPKW.15" probabilities="24"/>
    </flow>
    <flow id="162959647#1_0.qPKW.15" departSpeed="max" departPos="last" departLane="best" number="14" begin="900" end="1200">
        <routeDistribution routes="162959647#1_0_E2_0.qPKW.15 162959647#1_0_27849848#8_0.qPKW.15" probabilities="1 13"/>
    </flow>
    <flow id="162959647#1_1.qPKW.15" departSpeed="max" departPos="last" departLane="best" number="3" begin="900" end="1200">
        <routeDistribution routes="162959647#1_1_27849848#8_1.qPKW.15" probabilities="3"/>
    </flow>
    <flow id="236838900#0_0.qPKW.15" departSpeed="max" departPos="last" departLane="best" number="2" begin="900" end="1200">
        <routeDistribution routes="236838900#0_0_-E0_2.qPKW.15" probabilities="2"/>
    </flow>
    <flow id="236838900#0_1.qPKW.15" departSpeed="max" departPos="last" departLane="best" number="6" begin="900" end="1200">
        <routeDistribution routes="236838900#0_1_27393204#3_1.qPKW.15 236838900#0_1_430418021_1.qPKW.15" probabilities="5 1"/>
    </flow>
    <flow id="408322117#6_1.qPKW.15" departSpeed="max" departPos="last" departLane="best" number="6" begin="900" end="1200">
        <routeDistribution routes="408322117#6_1_430418021_1.qPKW.15 408322117#6_1_27849848#8_1.qPKW.15" probabilities="1 5"/>
    </flow>
    <flow id="E0_0.qPKW.15" departSpeed="max" departPos="last" departLane="best" number="16" begin="900" end="1200">
        <routeDistribution routes="E0_0_E2_0.qPKW.15 E0_0_27393204#3_0.qPKW.15 E0_0_430418021_1.qPKW.15" probabilities="1 11 4"/>
    </flow>
    <flow id="E0_1.qPKW.15" departSpeed="max" departPos="last" departLane="best" number="23" begin="900" end="1200">
        <routeDistribution routes="E0_1_E2_1.qPKW.15" probabilities="23"/>
    </flow>
    <flow id="E0_2.qPKW.15" departSpeed="max" departPos="last" departLane="best" number="32" begin="900" end="1200">
        <routeDistribution routes="E0_2_E2_2.qPKW.15" probabilities="32"/>
    </flow>
    <flow id="E0_3.qPKW.15" departSpeed="max" departPos="last" departLane="best" number="31" begin="900" end="1200">
        <routeDistribution routes="E0_3_E2_3.qPKW.15" probabilities="31"/>
    </flow>
    <flow id="E9_1.qPKW.15" departSpeed="max" departPos="last" departLane="best" number="5" begin="900" end="1200">
        <routeDistribution routes="E9_1_430418021_1.qPKW.15 E9_1_-E0_3.qPKW.15" probabilities="2 3"/>
    </flow>
    <flow id="-E2_1.qPKW.20" departSpeed="max" departPos="last" departLane="best" number="31" begin="1200" end="1500">
        <routeDistribution routes="-E2_1_-E0_1.qPKW.20 -E2_1_430418021_1.qPKW.20 -E2_1_E2_3.qPKW.20" probabilities="22 1 8"/>
    </flow>
    <flow id="-E2_2.qPKW.20" departSpeed="max" departPos="last" departLane="best" number="30" begin="1200" end="1500">
        <routeDistribution routes="-E2_2_-E0_2.qPKW.20" probabilities="30"/>
    </flow>
    <flow id="-E2_3.qPKW.20" departSpeed="max" departPos="last" departLane="best" number="21" begin="1200" end="1500">
        <routeDistribution routes="-E2_3_-E0_3.qPKW.20" probabilities="21"/>
    </flow>
    <flow id="162959647#1_0.qPKW.20" departSpeed="max" departPos="last" departLane="best" number="25" begin="1200" end="1500">
        <routeDistribution routes="162959647#1_0_430418021_0.qPKW.20 162959647#1_0_E2_0.qPKW.20 162959647#1_0_E2_1.qPKW.20 162959647#1_0_27849848#8_0.qPKW.20" probabilities="3 1 9 12"/>
    </flow>
    <flow id="162959647#1_1.qPKW.20" departSpeed="max" departPos="last" departLane="best" number="3" begin="1200" end="1500">
        <routeDistribution routes="162959647#1_1_27849848#8_1.qPKW.20" probabilities="3"/>
    </flow>
    <flow id="236838900#0_1.qPKW.20" departSpeed="max" departPos="last" departLane="best" number="18" begin="1200" end="1500">
        <routeDistribution routes="236838900#0_1_E2_2.qPKW.20 236838900#0_1_27393204#3_1.qPKW.20 236838900#0_1_430418021_1.qPKW.20" probabilities="4 11 3"/>
    </flow>
    <flow id="408322117#6_0.qPKW.20" departSpeed="max" departPos="last" departLane="best" number="1" begin="1200" end="1500">
        <routeDistribution routes="408322117#6_0_27393204#3_0.qPKW.20" probabilities="1"/>
    </flow>
    <flow id="408322117#6_1.qPKW.20" departSpeed="max" departPos="last" departLane="best" number="3" begin="1200" end="1500">
        <routeDistribution routes="408322117#6_1_430418021_1.qPKW.20" probabilities="3"/>
    </flow>
    <flow id="E0_0.qPKW.20" departSpeed="max" departPos="last" departLane="best" number="15" begin="1200" end="1500">
        <routeDistribution routes="E0_0_27393204#3_0.qPKW.20 E0_0_27849848#8_1.qPKW.20 E0_0_E2_3.qPKW.20" probabilities="11 3 1"/>
    </flow>
    <flow id="E0_1.qPKW.20" departSpeed="max" departPos="last" departLane="best" number="36" begin="1200" end="1500">
        <routeDistribution routes="E0_1_E2_1.qPKW.20" probabilities="36"/>
    </flow>
    <flow id="E0_2.qPKW.20" departSpeed="max" departPos="last" departLane="best" number="43" begin="1200" end="1500">
        <routeDistribution routes="E0_2_E2_2.qPKW.20" probabilities="43"/>
    </flow>
    <flow id="E0_3.qPKW.20" departSpeed="max" departPos="last" departLane="best" number="25" begin="1200" end="1500">
        <routeDistribution routes="E0_3_E2_3.qPKW.20" probabilities="25"/>
    </flow>
    <flow id="E9_1.qPKW.20" departSpeed="max" departPos="last" departLane="best" number="4" begin="1200" end="1500">
        <routeDistribution routes="E9_1_E2_3.qPKW.20" probabilities="4"/>
    </flow>
    <flow id="-E2_0.qPKW.25" departSpeed="max" departPos="last" departLane="best" number="8" begin="1500" end="1800">
        <routeDistribution routes="-E2_0_27849848#8_0.qPKW.25" probabilities="8"/>
    </flow>
    <flow id="-E2_1.qPKW.25" departSpeed="max" departPos="last" departLane="best" number="27" begin="1500" end="1800">
        <routeDistribution routes="-E2_1_-E0_1.qPKW.25" probabilities="27"/>
    </flow>
    <flow id="-E2_2.qPKW.25" departSpeed="max" departPos="last" departLane="best" number="41" begin="1500" end="1800">
        <routeDistribution routes="-E2_2_-E0_2.qPKW.25" probabilities="41"/>
    </flow>
    <flow id="-E2_3.qPKW.25" departSpeed="max" departPos="last" departLane="best" number="33" begin="1500" end="1800">
        <routeDistribution routes="-E2_3_-E0_3.qPKW.25" probabilities="33"/>
    </flow>
    <flow id="162959647#1_0.qPKW.25" departSpeed="max" departPos="last" departLane="best" number="8" begin="1500" end="1800">
        <routeDistribution routes="162959647#1_0_E2_1.qPKW.25" probabilities="8"/>
    </flow>
    <flow id="236838900#0_0.qPKW.25" departSpeed="max" departPos="last" departLane="best" number="14" begin="1500" end="1800">
        <routeDistribution routes="236838900#0_0_-E0_1.qPKW.25" probabilities="14"/>
    </flow>
    <flow id="236838900#0_1.qPKW.25" departSpeed="max" departPos="last" departLane="best" number="19" begin="1500" end="1800">
        <routeDistribution routes="236838900#0_1_27393204#3_0.qPKW.25 236838900#0_1_27393204#3_1.qPKW.25 236838900#0_1_430418021_1.qPKW.25 236838900#0_1_27849848#8_1.qPKW.25" probabilities="3 3 4 9"/>
    </flow>
    <flow id="E0_0.qPKW.25" departSpeed="max" departPos="last" departLane="best" number="21" begin="1500" end="1800">
        <routeDistribution routes="E0_0_E2_0.qPKW.25 E0_0_27393204#3_0.qPKW.25 E0_0_-E0_3.qPKW.25 E0_0_E2_3.qPKW.25" probabilities="3 4 9 5"/>
    </flow>
    <flow id="E0_1.qPKW.25" departSpeed="max" departPos="last" departLane="best" number="25" begin="1500" end="1800">
        <routeDistribution routes="E0_1_E2_1.qPKW.25" probabilities="25"/>
    </flow>
    <flow id="E0_2.qPKW.25" departSpeed="max" departPos="last" departLane="best" number="42" begin="1500" end="1800">
        <routeDistribution routes="E0_2_E2_2.qPKW.25" probabilities="42"/>
    </flow>
    <flow id="E0_3.qPKW.25" departSpeed="max" departPos="last" departLane="best" number="30" begin="1500" end="1800">
        <routeDistribution routes="E0_3_E2_3.qPKW.25" probabilities="30"/>
    </flow>
    <flow id="E9_0.qPKW.25" departSpeed="max" departPos="last" departLane="best" number="6" begin="1500" end="1800">
        <routeDistribution routes="E9_0_27849848#8_0.qPKW.25" probabilities="6"/>
    </flow>
    <flow id="E9_1.qPKW.25" departSpeed="max" departPos="last" departLane="best" number="6" begin="1500" end="1800">
        <routeDistribution routes="E9_1_E2_3.qPKW.25" probabilities="6"/>
    </flow>
    <flow id="-E2_1.qPKW.30" departSpeed="max" departPos="last" departLane="best" number="37" begin="1800" end="2100">
        <routeDistribution routes="-E2_1_-E0_1.qPKW.30 -E2_1_430418021_1.qPKW.30" probabilities="34 3"/>
    </flow>
    <flow id="-E2_2.qPKW.30" departSpeed="max" departPos="last" departLane="best" number="40" begin="1800" end="2100">
        <routeDistribution routes="-E2_2_-E0_2.qPKW.30" probabilities="40"/>
    </flow>
    <flow id="-E2_3.qPKW.30" departSpeed="max" departPos="last" departLane="best" number="31" begin="1800" end="2100">
        <routeDistribution routes="-E2_3_-E0_3.qPKW.30" probabilities="31"/>
    </flow>
    <flow id="162959647#1_0.qPKW.30" departSpeed="max" departPos="last" departLane="best" number="17" begin="1800" end="2100">
        <routeDistribution routes="162959647#1_0_E2_1.qPKW.30 162959647#1_0_27849848#8_0.qPKW.30" probabilities="10 7"/>
    </flow>
    <flow id="162959647#1_1.qPKW.30" departSpeed="max" departPos="last" departLane="best" number="3" begin="1800" end="2100">
        <routeDistribution routes="162959647#1_1_27849848#8_1.qPKW.30" probabilities="3"/>
    </flow>
    <flow id="236838900#0_1.qPKW.30" departSpeed="max" departPos="last" departLane="best" number="12" begin="1800" end="2100">
        <routeDistribution routes="236838900#0_1_27393204#3_0.qPKW.30 236838900#0_1_27393204#3_1.qPKW.30 236838900#0_1_430418021_1.qPKW.30" probabilities="3 8 1"/>
    </flow>
    <flow id="E0_0.qPKW.30" departSpeed="max" departPos="last" departLane="best" number="23" begin="1800" end="2100">
        <routeDistribution routes="E0_0_E2_0.qPKW.30 E0_0_27393204#3_0.qPKW.30 E0_0_430418021_0.qPKW.30 E0_0_27849848#8_1.qPKW.30" probabilities="2 8 8 5"/>
    </flow>
    <flow id="E0_1.qPKW.30" departSpeed="max" departPos="last" departLane="best" number="30" begin="1800" end="2100">
        <routeDistribution routes="E0_1_E2_1.qPKW.30" probabilities="30"/>
    </flow>
    <flow id="E0_2.qPKW.30" departSpeed="max" departPos="last" departLane="best" number="27" begin="1800" end="2100">
        <routeDistribution routes="E0_2_E2_2.qPKW.30" probabilities="27"/>
    </flow>
    <flow id="E0_3.qPKW.30" departSpeed="max" departPos="last" departLane="best" number="19" begin="1800" end="2100">
        <routeDistribution routes="E0_3_E2_3.qPKW.30" probabilities="19"/>
    </flow>
    <flow id="-E2_1.qPKW.35" departSpeed="max" departPos="last" departLane="best" number="29" begin="2100" end="2400">
        <routeDistribution routes="-E2_1_-E0_1.qPKW.35" probabilities="29"/>
    </flow>
    <flow id="-E2_2.qPKW.35" departSpeed="max" departPos="last" departLane="best" number="34" begin="2100" end="2400">
        <routeDistribution routes="-E2_2_-E0_2.qPKW.35" probabilities="34"/>
    </flow>
    <flow id="-E2_3.qPKW.35" departSpeed="max" departPos="last" departLane="best" number="22" begin="2100" end="2400">
        <routeDistribution routes="-E2_3_-E0_3.qPKW.35" probabilities="22"/>
    </flow>
    <flow id="162959647#1_0.qPKW.35" departSpeed="max" departPos="last" departLane="best" number="15" begin="2100" end="2400">
        <routeDistribution routes="162959647#1_0_430418021_0.qPKW.35 162959647#1_0_E2_0.qPKW.35 162959647#1_0_E2_1.qPKW.35 162959647#1_0_27849848#8_0.qPKW.35" probabilities="4 2 4 5"/>
    </flow>
    <flow id="162959647#1_1.qPKW.35" departSpeed="max" departPos="last" departLane="best" number="2" begin="2100" end="2400">
        <routeDistribution routes="162959647#1_1_27849848#8_1.qPKW.35" probabilities="2"/>
    </flow>
    <flow id="236838900#0_0.qPKW.35" departSpeed="max" departPos="last" departLane="best" number="2" begin="2100" end="2400">
        <routeDistribution routes="236838900#0_0_-E0_1.qPKW.35" probabilities="2"/>
    </flow>
    <flow id="236838900#0_1.qPKW.35" departSpeed="max" departPos="last" departLane="best" number="5" begin="2100" end="2400">
        <routeDistribution routes="236838900#0_1_27393204#3_0.qPKW.35 236838900#0_1_27393204#3_1.qPKW.35" probabilities="3 2"/>
    </flow>
    <flow id="408322117#6_0.qPKW.35" departSpeed="max" departPos="last" departLane="best" number="3" begin="2100" end="2400">
        <routeDistribution routes="408322117#6_0_27393204#3_0.qPKW.35" probabilities="3"/>
    </flow>
    <flow id="408322117#6_1.qPKW.35" departSpeed="max" departPos="last" departLane="best" number="10" begin="2100" end="2400">
        <routeDistribution routes="408322117#6_1_430418021_1.qPKW.35 408322117#6_1_27849848#8_1.qPKW.35" probabilities="6 4"/>
    </flow>
    <flow id="E0_0.qPKW.35" departSpeed="max" departPos="last" departLane="best" number="10" begin="2100" end="2400">
        <routeDistribution routes="E0_0_27393204#3_0.qPKW.35 E0_0_430418021_1.qPKW.35" probabilities="8 2"/>
    </flow>
    <flow id="E0_1.qPKW.35" departSpeed="max" departPos="last" departLane="best" number="31" begin="2100" end="2400">
        <routeDistribution routes="E0_1_E2_1.qPKW.35" probabilities="31"/>
    </flow>
    <flow id="E0_2.qPKW.35" departSpeed="max" departPos="last" departLane="best" number="36" begin="2100" end="2400">
        <routeDistribution routes="E0_2_E2_2.qPKW.35" probabilities="36"/>
    </flow>
    <flow id="E0_3.qPKW.35" departSpeed="max" departPos="last" departLane="best" number="33" begin="2100" end="2400">
        <routeDistribution routes="E0_3_E2_3.qPKW.35" probabilities="33"/>
    </flow>
    <flow id="E9_1.qPKW.35" departSpeed="max" departPos="last" departLane="best" number="16" begin="2100" end="2400">
        <routeDistribution routes="E9_1_27393204#3_1.qPKW.35 E9_1_430418021_1.qPKW.35 E9_1_-E0_3.qPKW.35 E9_1_E2_3.qPKW.35" probabilities="2 3 9 2"/>
    </flow>
    <flow id="-E2_1.qPKW.40" departSpeed="max" departPos="last" departLane="best" number="29" begin="2400" end="2700">
        <routeDistribution routes="-E2_1_-E0_1.qPKW.40" probabilities="29"/>
    </flow>
    <flow id="-E2_2.qPKW.40" departSpeed="max" departPos="last" departLane="best" number="37" begin="2400" end="2700">
        <routeDistribution routes="-E2_2_-E0_2.qPKW.40" probabilities="37"/>
    </flow>
    <flow id="-E2_3.qPKW.40" departSpeed="max" departPos="last" departLane="best" number="22" begin="2400" end="2700">
        <routeDistribution routes="-E2_3_-E0_3.qPKW.40" probabilities="22"/>
    </flow>
    <flow id="162959647#1_0.qPKW.40" departSpeed="max" departPos="last" departLane="best" number="22" begin="2400" end="2700">
        <routeDistribution routes="162959647#1_0_E2_1.qPKW.40 162959647#1_0_27849848#8_0.qPKW.40" probabilities="16 6"/>
    </flow>
    <flow id="162959647#1_1.qPKW.40" departSpeed="max" departPos="last" departLane="best" number="2" begin="2400" end="2700">
        <routeDistribution routes="162959647#1_1_27849848#8_1.qPKW.40" probabilities="2"/>
    </flow>
    <flow id="236838900#0_1.qPKW.40" departSpeed="max" departPos="last" departLane="best" number="17" begin="2400" end="2700">
        <routeDistribution routes="236838900#0_1_27393204#3_0.qPKW.40 236838900#0_1_27393204#3_1.qPKW.40 236838900#0_1_430418021_1.qPKW.40" probabilities="4 4 9"/>
    </flow>
    <flow id="E0_0.qPKW.40" departSpeed="max" departPos="last" departLane="best" number="15" begin="2400" end="2700">
        <routeDistribution routes="E0_0_E2_0.qPKW.40 E0_0_27393204#3_0.qPKW.40 E0_0_430418021_0.qPKW.40" probabilities="2 6 7"/>
    </flow>
    <flow id="E0_1.qPKW.40" departSpeed="max" departPos="last" departLane="best" number="27" begin="2400" end="2700">
        <routeDistribution routes="E0_1_E2_1.qPKW.40" probabilities="27"/>
    </flow>
    <flow id="E0_2.qPKW.40" departSpeed="max" departPos="last" departLane="best" number="39" begin="2400" end="2700">
        <routeDistribution routes="E0_2_E2_2.qPKW.40" probabilities="39"/>
    </flow>
    <flow id="E0_3.qPKW.40" departSpeed="max" departPos="last" departLane="best" number="27" begin="2400" end="2700">
        <routeDistribution routes="E0_3_E2_3.qPKW.40" probabilities="27"/>
    </flow>
    <flow id="E9_0.qPKW.40" departSpeed="max" departPos="last" departLane="best" number="2" begin="2400" end="2700">
        <routeDistribution routes="E9_0_27849848#8_0.qPKW.40" probabilities="2"/>
    </flow>
    <flow id="-E2_1.qPKW.45" departSpeed="max" departPos="last" departLane="best" number="21" begin="2700" end="3000">
        <routeDistribution routes="-E2_1_-E0_1.qPKW.45" probabilities="21"/>
    </flow>
    <flow id="-E2_2.qPKW.45" departSpeed="max" departPos="last" departLane="best" number="42" begin="2700" end="3000">
        <routeDistribution routes="-E2_2_-E0_2.qPKW.45" probabilities="42"/>
    </flow>
    <flow id="-E2_3.qPKW.45" departSpeed="max" departPos="last" departLane="best" number="16" begin="2700" end="3000">
        <routeDistribution routes="-E2_3_-E0_3.qPKW.45" probabilities="16"/>
    </flow>
    <flow id="162959647#1_0.qPKW.45" departSpeed="max" departPos="last" departLane="best" number="9" begin="2700" end="3000">
        <routeDistribution routes="162959647#1_0_E2_1.qPKW.45" probabilities="9"/>
    </flow>
    <flow id="162959647#1_1.qPKW.45" departSpeed="max" departPos="last" departLane="best" number="5" begin="2700" end="3000">
        <routeDistribution routes="162959647#1_1_27849848#8_1.qPKW.45" probabilities="5"/>
    </flow>
    <flow id="236838900#0_0.qPKW.45" departSpeed="max" departPos="last" departLane="best" number="18" begin="2700" end="3000">
        <routeDistribution routes="236838900#0_0_-E0_1.qPKW.45 236838900#0_0_-E0_2.qPKW.45" probabilities="14 4"/>
    </flow>
    <flow id="236838900#0_1.qPKW.45" departSpeed="max" departPos="last" departLane="best" number="14" begin="2700" end="3000">
        <routeDistribution routes="236838900#0_1_27393204#3_0.qPKW.45 236838900#0_1_27393204#3_1.qPKW.45 236838900#0_1_430418021_1.qPKW.45" probabilities="1 6 7"/>
    </flow>
    <flow id="408322117#6_0.qPKW.45" departSpeed="max" departPos="last" departLane="best" number="1" begin="2700" end="3000">
        <routeDistribution routes="408322117#6_0_27393204#3_0.qPKW.45" probabilities="1"/>
    </flow>
    <flow id="408322117#6_1.qPKW.45" departSpeed="max" departPos="last" departLane="best" number="20" begin="2700" end="3000">
        <routeDistribution routes="408322117#6_1_-E0_3.qPKW.45" probabilities="20"/>
    </flow>
    <flow id="E0_0.qPKW.45" departSpeed="max" departPos="last" departLane="best" number="10" begin="2700" end="3000">
        <routeDistribution routes="E0_0_E2_0.qPKW.45 E0_0_27393204#3_0.qPKW.45 E0_0_27849848#8_1.qPKW.45 E0_0_-E0_3.qPKW.45" probabilities="1 7 1 1"/>
    </flow>
    <flow id="E0_1.qPKW.45" departSpeed="max" departPos="last" departLane="best" number="29" begin="2700" end="3000">
        <routeDistribution routes="E0_1_E2_1.qPKW.45" probabilities="29"/>
    </flow>
    <flow id="E0_2.qPKW.45" departSpeed="max" departPos="last" departLane="best" number="39" begin="2700" end="3000">
        <routeDistribution routes="E0_2_E2_2.qPKW.45" probabilities="39"/>
    </flow>
    <flow id="E0_3.qPKW.45" departSpeed="max" departPos="last" departLane="best" number="33" begin="2700" end="3000">
        <routeDistribution routes="E0_3_E2_3.qPKW.45" probabilities="33"/>
    </flow>
    <flow id="E9_0.qPKW.45" departSpeed="max" departPos="last" departLane="best" number="4" begin="2700" end="3000">
        <routeDistribution routes="E9_0_27849848#8_0.qPKW.45" probabilities="4"/>
    </flow>
    <flow id="E9_1.qPKW.45" departSpeed="max" departPos="last" departLane="best" number="7" begin="2700" end="3000">
        <routeDistribution routes="E9_1_E2_2.qPKW.45 E9_1_E2_3.qPKW.45" probabilities="5 2"/>
    </flow>
    <flow id="-E2_1.qPKW.50" departSpeed="max" departPos="last" departLane="best" number="25" begin="3000" end="3300">
        <routeDistribution routes="-E2_1_-E0_1.qPKW.50" probabilities="25"/>
    </flow>