<routes>
    <route id="-E2_0_27849848#8_0.qPKW.0" edges="-E2 E10 E9.22 146940890#3 27849848#0 27849848#1 27849848#2 27849848#3 27849848#4 27849848#5 27849848#6 27849848#7 27849848#8"/>
    <route id="-E2_1_-E0_1.qPKW.0" edges="-E2 -E2.397 -E1 -E0"/>
    <route id="-E2_2_-E0_2.qPKW.0" edges="-E2 -E2.397 -E1 -E0"/>
    <route id="-E2_3_-E0_3.qPKW.0" edges="-E2 -E2.397 -E1 -E0"/>
    <route id="162959647#1_0_E2_1.qPKW.0" edges="162959647#1 162959647#2 162959647#3 162959647#4 430417120#0 430417120#1 E5 E2"/>
    <route id="162959647#1_0_27849848#8_0.qPKW.0" edges="162959647#1 162959647#2 162959647#3 162959647#4 430417120#0 430417120#1 E5 E6 27849848#0 27849848#1 27849848#2 27849848#3 27849848#4 27849848#5 27849848#6 27849848#7 27849848#8"/>
    <route id="162959647#1_1_27849848#8_1.qPKW.0" edges="162959647#1 162959647#2 162959647#3 162959647#4 430417120#0 430417120#1 E5 E6 27849848#0 27849848#1 27849848#2 27849848#3 27849848#4 27849848#5 27849848#6 27849848#7 27849848#8"/>
    <route id="236838900#0_0_-E0_1.qPKW.0" edges="236838900#0 236838900#1 236838900#2 236838900#3 236838900#4 236838900#5 236838900#6 146940895 162258623#0 162258623#1 162258623#2 E7 E3 -E0"/>
    <route id="236838900#0_1_27393204#3_0.qPKW.0" edges="236838900#0 236838900#1 236838900#2 236838900#3 236838900#4 236838900#5 236838900#6 146940895 162258623#0 162258623#1 162258623#2 E7 E3 E4 430417122#0 430417122#1 430417122#2 27393204#0 27393204#1 27393204#2 27393204#3"/>
    <route id="236838900#0_1_27393204#3_1.qPKW.0" edges="236838900#0 236838900#1 236838900#2 236838900#3 236838900#4 236838900#5 236838900#6 146940895 162258623#0 162258623#1 162258623#2 E7 E3 E4 430417122#0 430417122#1 430417122#2 27393204#0 27393204#1 27393204#2 27393204#3"/>
    <route id="236838900#0_1_430418021_1.qPKW.0" edges="236838900#0 236838900#1 236838900#2 236838900#3 236838900#4 236838900#5 236838900#6 146940895 162258623#0 162258623#1 162258623#2 E7 E3 E4 965136261 27849856#0 27849856#1 430418021"/>
    <route id="236838900#0_1_27849848#8_1.qPKW.0" edges="236838900#0 236838900#1 236838900#2 236838900#3 236838900#4 236838900#5 236838900#6 146940895 162258623#0 162258623#1 162258623#2 E7 E3 E4 965136261 27849856#0 27849856#1 E5 E6 27849848#0 27849848#1 27849848#2 27849848#3 27849848#4 27849848#5 27849848#6 27849848#7 27849848#8"/>
    <route id="E0_0_E2_0.qPKW.0" edges="E0 E0.564 E1 E2"/>
    <route id="E0_0_27393204#3_0.qPKW.0" edges="E0 E8 408322117#6.69 430417122#0 430417122#1 430417122#2 27393204#0 27393204#1 27393204#2 27393204#3"/>
    <route id="E0_1_E2_1.qPKW.0" edges="E0 E0.564 E1 E2"/>
    <route id="E0_2_E2_2.qPKW.0" edges="E0 E0.564 E1 E2"/>
    <route id="E0_3_E2_3.qPKW.0" edges="E0 E0.564 E1 E2"/>
    <route id="E9_0_27849848#8_0.qPKW.0" edges="E9 E9.22 146940890#3 27849848#0 27849848#1 27849848#2 27849848#3 27849848#4 27849848#5 27849848#6 27849848#7 27849848#8"/>
    <route id="E9_1_E2_3.qPKW.0" edges="E9 E9.22 146940890#3 135733473 135733471 E3 E1 E2"/>
    <route id="-E2_1_-E0_1.qPKW.5" edges="-E2 -E2.397 -E1 -E0"/>
    <route id="-E2_2_-E0_2.qPKW.5" edges="-E2 -E2.397 -E1 -E0"/>
    <route id="-E2_3_-E0_3.qPKW.5" edges="-E2 -E2.397 -E1 -E0"/>
    <route id="162959647#1_0_E2_1.qPKW.5" edges="162959647#1 162959647#2 162959647#3 162959647#4 430417120#0 430417120#1 E5 E2"/>
    <route id="162959647#1_1_-E0_3.qPKW.5" edges="162959647#1 162959647#2 162959647#3 162959647#4 430417120#0 430417120#1 E5 -E1 -E0"/>
    <route id="236838900#0_0_-E0_1.qPKW.5" edges="236838900#0 236838900#1 236838900#2 236838900#3 236838900#4 236838900#5 236838900#6 146940895 162258623#0 162258623#1 162258623#2 E7 E3 -E0"/>
    <route id="236838900#0_1_27393204#3_1.qPKW.5" edges="236838900#0 236838900#1 236838900#2 236838900#3 236838900#4 236838900#5 236838900#6 146940895 162258623#0 162258623#1 162258623#2 E7 E3 E4 430417122#0 430417122#1 430417122#2 27393204#0 27393204#1 27393204#2 27393204#3"/>
    <route id="408322117#6_0_27393204#3_0.qPKW.5" edges="408322117#6 408322117#6.69 430417122#0 430417122#1 430417122#2 27393204#0 27393204#1 27393204#2 27393204#3"/>
    <route id="E0_0_E2_0.qPKW.5" edges="E0 E0.564 E1 E2"/>
    <route id="E0_0_27393204#3_0.qPKW.5" edges="E0 E8 408322117#6.69 430417122#0 430417122#1 430417122#2 27393204#0 27393204#1 27393204#2 27393204#3"/>
    <route id="E0_0_430418021_1.qPKW.5" edges="E0 E8 408322117#6.69 965136261 27849856#0 27849856#1 430418021"/>
    <route id="E0_0_27849848#8_1.qPKW.5" edges="E0 E8 408322117#6.69 965136261 27849856#0 27849856#1 E5 E6 27849848#0 27849848#1 27849848#2 27849848#3 27849848#4 27849848#5 27849848#6 27849848#7 27849848#8"/>
    <route id="E0_0_E2_3.qPKW.5" edges="E0 E8 408322117#6.69 965136261 27849856#0 27849856#1 E5 E6 135733473 135733471 E3 E1 E2"/>
    <route id="E0_1_E2_1.qPKW.5" edges="E0 E0.564 E1 E2"/>
    <route id="E0_2_E2_2.qPKW.5" edges="E0 E0.564 E1 E2"/>
    <route id="E0_3_E2_3.qPKW.5" edges="E0 E0.564 E1 E2"/>
    <route id="E9_0_27849848#8_0.qPKW.5" edges="E9 E9.22 146940890#3 27849848#0 27849848#1 27849848#2 27849848#3 27849848#4 27849848#5 27849848#6 27849848#7 27849848#8"/>
    <route id="E9_1_E2_3.qPKW.5" edges="E9 E9.22 146940890#3 135733473 135733471 E3 E1 E2"/>
    <route id="-E2_1_-E0_1.qPKW.10" edges="-E2 -E2.397 -E1 -E0"/>
    <route id="-E2_2_-E0_2.qPKW.10" edges="-E2 -E2.397 -E1 -E0"/>
    <route id="-E2_3_-E0_3.qPKW.10" edges="-E2 -E2.397 -E1 -E0"/>
    <route id="162959647#1_0_E2_1.qPKW.10" edges="162959647#1 162959647#2 162959647#3 162959647#4 430417120#0 430417120#1 E5 E2"/>
    <route id="162959647#1_0_27849848#8_0.qPKW.10" edges="162959647#1 162959647#2 162959647#3 162959647#4 430417120#0 430417120#1 E5 E6 27849848#0 27849848#1 27849848#2 27849848#3 27849848#4 27849848#5 27849848#6 27849848#7 27849848#8"/>
    <route id="162959647#1_1_27849848#8_1.qPKW.10" edges="162959647#1 162959647#2 162959647#3 162959647#4 430417120#0 430417120#1 E5 E6 27849848#0 27849848#1 27849848#2 27849848#3 27849848#4 27849848#5 27849848#6 27849848#7 27849848#8"/>
    <route id="236838900#0_0_-E0_1.qPKW.10" edges="236838900#0 236838900#1 236838900#2 236838900#3 236838900#4 236838900#5 236838900#6 146940895 162258623#0 162258623#1 162258623#2 E7 E3 -E0"/>
    <route id="236838900#0_0_-E0_2.qPKW.10" edges="236838900#0 236838900#1 236838900#2 236838900#3 236838900#4 236838900#5 236838900#6 146940895 162258623#0 162258623#1 162258623#2 E7 E3 -E0"/>
    <route id="236838900#0_1_430418021_1.qPKW.10" edges="236838900#0 236838900#1 236838900#2 236838900#3 236838900#4 236838900#5 236838900#6 146940895 162258623#0 162258623#1 162258623#2 E7 E3 E4 965136261 27849856#0 27849856#1 430418021"/>
    <route id="408322117#6_1_430418021_1.qPKW.10" edges="408322117#6 408322117#6.69 965136261 27849856#0 27849856#1 430418021"/>
    <route id="408322117#6_1_27849848#8_1.qPKW.10" edges="408322117#6 408322117#6.69 965136261 27849856#0 27849856#1 E5 E6 27849848#0 27849848#1 27849848#2 27849848#3 27849848#4 27849848#5 27849848#6 27849848#7 27849848#8"/>
    <route id="408322117#6_1_-E0_3.qPKW.10" edges="408322117#6 408322117#6.69 965136261 27849856#0 27849856#1 E5 -E1 -E0"/>
    <route id="E0_0_E2_0.qPKW.10" edges="E0 E0.564 E1 E2"/>
    <route id="E0_0_27393204#3_0.qPKW.10" edges="E0 E8 408322117#6.69 430417122#0 430417122#1 430417122#2 27393204#0 27393204#1 27393204#2 27393204#3"/>
    <route id="E0_1_E2_1.qPKW.10" edges="E0 E0.564 E1 E2"/>
    <route id="E0_2_E2_2.qPKW.10" edges="E0 E0.564 E1 E2"/>
    <route id="E0_3_E2_3.qPKW.10" edges="E0 E0.564 E1 E2"/>
    <route id="E9_0_27849848#8_0.qPKW.10" edges="E9 E9.22 146940890#3 27849848#0 27849848#1 27849848#2 27849848#3 27849848#4 27849848#5 27849848#6 27849848#7 27849848#8"/>
    <route id="E9_1_27393204#3_1.qPKW.10" edges="E9 E9.22 146940890#3 135733473 135733471 E3 E4 430417122#0 430417122#1 430417122#2 27393204#0 27393204#1 27393204#2 27393204#3"/>
    <route id="E9_1_E2_3.qPKW.10" edges="E9 E9.22 146940890#3 135733473 135733471 E3 E1 E2"/>
    <route id="-E2_1_-E0_1.qPKW.15" edges="-E2 -E2.397 -E1 -E0"/>
    <route id="-E2_1_27393204#3_1.qPKW.15" edges="-E2 E10 E9.22 146940890#3 135733473 135733471 E3 E4 430417122#0 430417122#1 430417122#2 27393204#0 27393204#1 27393204#2 27393204#3"/>
    <route id="-E2_2_-E0_2.qPKW.15" edges="-E2 -E2.397 -E1 -E0"/>
    <route id="-E2_3_-E0_3.qPKW.15" edges="-E2 -E2.397 -E1 -E0"/>
    <route id="162959647#1_0_E2_0.qPKW.15" edges="162959647#1 162959647#2 162959647#3 162959647#4 430417120#0 430417120#1 E5 E2"/>
    <route id="162959647#1_0_27849848#8_0.qPKW.15" edges="162959647#1 162959647#2 162959647#3 162959647#4 430417120#0 430417120#1 E5 E6 27849848#0 27849848#1 27849848#2 27849848#3 27849848#4 27849848#5 27849848#6 27849848#7 27849848#8"/>
    <route id="162959647#1_1_27849848#8_1.qPKW.15" edges="162959647#1 162959647#2 162959647#3 162959647#4 430417120#0 430417120#1 E5 E6 27849848#0 27849848#1 27849848#2 27849848#3 27849848#4 27849848#5 27849848#6 27849848#7 27849848#8"/>
    <route id="236838900#0_0_-E0_2.qPKW.15" edges="236838900#0 236838900#1 236838900#2 236838900#3 236838900#4 236838900#5 236838900#6 146940895 162258623#0 162258623#1 162258623#2 E7 E3 -E0"/>
    <route id="236838900#0_1_27393204#3_1.qPKW.15" edges="236838900#0 236838900#1 236838900#2 236838900#3 236838900#4 236838900#5 236838900#6 146940895 162258623#0 162258623#1 162258623#2 E7 E3 E4 430417122#0 430417122#1 430417122#2 27393204#0 27393204#1 27393204#2 27393204#3"/>
    <route id="236838900#0_1_430418021_1.qPKW.15" edges="236838900#0 236838900#1 236838900#2 236838900#3 236838900#4 236838900#5 236838900#6 146940895 162258623#0 162258623#1 162258623#2 E7 E3 E4 965136261 27849856#0 27849856#1 430418021"/>
    <route id="408322117#6_1_430418021_1.qPKW.15" edges="408322117#6 408322117#6.69 965136261 27849856#0 27849856#1 430418021"/>
    <route id="408322117#6_1_27849848#8_1.qPKW.15" edges="408322117#6 408322117#6.69 965136261 27849856#0 27849856#1 E5 E6 27849848#0 27849848#1 27849848#2 27849848#3 27849848#4 27849848#5 27849848#6 27849848#7 27849848#8"/>
    <route id="E0_0_E2_0.qPKW.15" edges="E0 E0.564 E1 E2"/>
    <route id="E0_0_27393204#3_0.qPKW.15" edges="E0 E8 408322117#6.69 430417122#0 430417122#1 430417122#2 27393204#0 27393204#1 27393204#2 27393204#3"/>
    <route id="E0_0_430418021_1.qPKW.15" edges="E0 E8 408322117#6.69 965136261 27849856#0 27849856#1 430418021"/>
    <route id="E0_1_E2_1.qPKW.15" edges="E0 E0.564 E1 E2"/>
    <route id="E0_2_E2_2.qPKW.15" edges="E0 E0.564 E1 E2"/>
    <route id="E0_3_E2_3.qPKW.15" edges="E0 E0.564 E1 E2"/>
    <route id="E9_1_430418021_1.qPKW.15" edges="E9 E9.22 146940890#3 135733473 135733471 E3 E4 965136261 27849856#0 27849856#1 430418021"/>
    <route id="E9_1_-E0_3.qPKW.15" edges="E9 E9.22 146940890#3 135733473 135733471 E3 E4 965136261 27849856#0 27849856#1 E5 -E1 -E0"/>
    <route id="-E2_1_-E0_1.qPKW.20" edges="-E2 -E2.397 -E1 -E0"/>
    <route id="-E2_1_430418021_1.qPKW.20" edges="-E2 E10 E9.22 146940890#3 135733473 135733471 E3 E4 965136261 27849856#0 27849856#1 430418021"/>
    <route id="-E2_1_E2_3.qPKW.20" edges="-E2 E10 E9.22 146940890#3 135733473 135733471 E3 E1 E2"/>
    <route id="-E2_2_-E0_2.qPKW.20" edges="-E2 -E2.397 -E1 -E0"/>
    <route id="-E2_3_-E0_3.qPKW.20" edges="-E2 -E2.397 -E1 -E0"/>
    <route id="162959647#1_0_430418021_0.qPKW.20" edges="162959647#1 162959647#2 162959647#3 162959647#4 430417120#0 430417120#1 430418021"/>
    <route id="162959647#1_0_E2_0.qPKW.20" edges="162959647#1 162959647#2 162959647#3 162959647#4 430417120#0 430417120#1 E5 E2"/>
    <route id="162959647#1_0_E2_1.qPKW.20" edges="162959647#1 162959647#2 162959647#3 162959647#4 430417120#0 430417120#1 E5 E2"/>
    <route id="162959647#1_0_27849848#8_0.qPKW.20" edges="162959647#1 162959647#2 162959647#3 162959647#4 430417120#0 430417120#1 E5 E6 27849848#0 27849848#1 27849848#2 27849848#3 27849848#4 27849848#5 27849848#6 27849848#7 27849848#8"/>
    <route id="162959647#1_1_27849848#8_1.qPKW.20" edges="162959647#1 162959647#2 162959647#3 162959647#4 430417120#0 430417120#1 E5 E6 27849848#0 27849848#1 27849848#2 27849848#3 27849848#4 27849848#5 27849848#6 27849848#7 27849848#8"/>
    <route id="236838900#0_1_E2_2.qPKW.20" edges="236838900#0 236838900#1 236838900#2 236838900#3 236838900#4 236838900#5 236838900#6 146940895 162258623#0 162258623#1 162258623#2 E7 E3 E1 E2"/>
    <route id="236838900#0_1_27393204#3_1.qPKW.20" edges="236838900#0 236838900#1 236838900#2 236838900#3 236838900#4 236838900#5 236838900#6 146940895 162258623#0 162258623#1 162258623#2 E7 E3 E4 430417122#0 430417122#1 430417122#2 27393204#0 27393204#1 27393204#2 27393204#3"/>
    <route id="236838900#0_1_430418021_1.qPKW.20" edges="236838900#0 236838900#1 236838900#2 236838900#3 236838900#4 236838900#5 236838900#6 146940895 162258623#0 162258623#1 162258623#2 E7 E3 E4 965136261 27849856#0 27849856#1 430418021"/>
    <route id="408322117#6_0_27393204#3_0.qPKW.20" edges="408322117#6 408322117#6.69 430417122#0 430417122#1 430417122#2 27393204#0 27393204#1 27393204#2 27393204#3"/>
    <route id="408322117#6_1_430418021_1.qPKW.20" edges="408322117#6 408322117#6.69 965136261 27849856#0 27849856#1 430418021"/>
    <route id="E0_0_27393204#3_0.qPKW.20" edges="E0 E8 408322117#6.69 430417122#0 430417122#1 430417122#2 27393204#0 27393204#1 27393204#2 27393204#3"/>
    <route id="E0_0_27849848#8_1.qPKW.20" edges="E0 E8 408322117#6.69 965136261 27849856#0 27849856#1 E5 E6 27849848#0 27849848#1 27849848#2 27849848#3 27849848#4 27849848#5 27849848#6 27849848#7 27849848#8"/>
    <route id="E0_0_E2_3.qPKW.20" edges="E0 E8 408322117#6.69 965136261 27849856#0 27849856#1 E5 E6 135733473 135733471 E3 E1 E2"/>
    <route id="E0_1_E2_1.qPKW.20" edges="E0 E0.564 E1 E2"/>
    <route id="E0_2_E2_2.qPKW.20" edges="E0 E0.564 E1 E2"/>
    <route id="E0_3_E2_3.qPKW.20" edges="E0 E0.564 E1 E2"/>
    <route id="E9_1_E2_3.qPKW.20" edges="E9 E9.22 146940890#3 135733473 135733471 E3 E1 E2"/>
    <route id="-E2_0_27849848#8_0.qPKW.25" edges="-E2 E10 E9.22 146940890#3 27849848#0 27849848#1 27849848#2 27849848#3 27849848#4 27849848#5 27849848#6 27849848#7 27849848#8"/>
    <route id="-E2_1_-E0_1.qPKW.25" edges="-E2 -E2.397 -E1 -E0"/>
    <route id="-E2_2_-E0_2.qPKW.25" edges="-E2 -E2.397 -E1 -E0"/>
    <route id="-E2_3_-E0_3.qPKW.25" edges="-E2 -E2.397 -E1 -E0"/>
    <route id="162959647#1_0_E2_1.qPKW.25" edges="162959647#1 162959647#2 162959647#3 162959647#4 430417120#0 430417120#1 E5 E2"/>
    <route id="236838900#0_0_-E0_1.qPKW.25" edges="236838900#0 236838900#1 236838900#2 236838900#3 236838900#4 236838900#5 236838900#6 146940895 162258623#0 162258623#1 162258623#2 E7 E3 -E0"/>
    <route id="236838900#0_1_27393204#3_0.qPKW.25" edges="236838900#0 236838900#1 236838900#2 236838900#3 236838900#4 236838900#5 236838900#6 146940895 162258623#0 162258623#1 162258623#2 E7 E3 E4 430417122#0 430417122#1 430417122#2 27393204#0 27393204#1 27393204#2 27393204#3"/>
    <route id="236838900#0_1_27393204#3_1.qPKW.25" edges="236838900#0 236838900#1 236838900#2 236838900#3 236838900#4 236838900#5 236838900#6 146940895 162258623#0 162258623#1 162258623#2 E7 E3 E4 430417122#0 430417122#1 430417122#2 27393204#0 27393204#1 27393204#2 27393204#3"/>
    <route id="236838900#0_1_430418021_1.qPKW.25" edges="236838900#0 236838900#1 236838900#2 236838900#3 236838900#4 236838900#5 236838900#6 146940895 162258623#0 162258623#1 162258623#2 E7 E3 E4 965136261 27849856#0 27849856#1 430418021"/>
    <route id="236838900#0_1_27849848#8_1.qPKW.25" edges="236838900#0 236838900#1 236838900#2 236838900#3 236838900#4 236838900#5 236838900#6 146940895 162258623#0 162258623#1 162258623#2 E7 E3 E4 965136261 27849856#0 27849856#1 E5 E6 27849848#0 27849848#1 27849848#2 27849848#3 27849848#4 27849848#5 27849848#6 27849848#7 27849848#8"/>
    <route id="E0_0_E2_0.qPKW.25" edges="E0 E0.564 E1 E2"/>
    <route id="E0_0_27393204#3_0.qPKW.25" edges="E0 E8 408322117#6.69 430417122#0 430417122#1 430417122#2 27393204#0 27393204#1 27393204#2 27393204#3"/>
    <route id="E0_0_-E0_3.qPKW.25" edges="E0 E8 408322117#6.69 965136261 27849856#0 27849856#1 E5 -E1 -E0"/>
    <route id="E0_0_E2_3.qPKW.25" edges="E0 E8 408322117#6.69 965136261 27849856#0 27849856#1 E5 E6 135733473 135733471 E3 E1 E2"/>
    <route id="E0_1_E2_1.qPKW.25" edges="E0 E0.564 E1 E2"/>
    <route id="E0_2_E2_2.qPKW.25" edges="E0 E0.564 E1 E2"/>
    <route id="E0_3_E2_3.qPKW.25" edges="E0 E0.564 E1 E2"/>
    <route id="E9_0_27849848#8_0.qPKW.25" edges="E9 E9.22 146940890#3 27849848#0 27849848#1 27849848#2 27849848#3 27849848#4 27849848#5 27849848#6 27849848#7 27849848#8"/>
    <route id="E9_1_E2_3.qPKW.25" edges="E9 E9.22 146940890#3 135733473 135733471 E3 E1 E2"/>
    <route id="-E2_1_-E0_1.qPKW.30" edges="-E2 -E2.397 -E1 -E0"/>
    <route id="-E2_1_430418021_1.qPKW.30" edges="-E2 E10 E9.22 146940890#3 135733473 135733471 E3 E4 965136261 27849856#0 27849856#1 430418021"/>
    <route id="-E2_2_-E0_2.qPKW.30" edges="-E2 -E2.397 -E1 -E0"/>
    <route id="-E2_3_-E0_3.qPKW.30" edges="-E2 -E2.397 -E1 -E0"/>
    <route id="162959647#1_0_E2_1.qPKW.30" edges="162959647#1 162959647#2 162959647#3 162959647#4 430417120#0 430417120#1 E5 E2"/>
    <route id="162959647#1_0_27849848#8_0.qPKW.30" edges="162959647#1 162959647#2 162959647#3 162959647#4 430417120#0 430417120#1 E5 E6 27849848#0 27849848#1 27849848#2 27849848#3 27849848#4 27849848#5 27849848#6 27849848#7 27849848#8"/>
    <route id="162959647#1_1_27849848#8_1.qPKW.30" edges="162959647#1 162959647#2 162959647#3 162959647#4 430417120#0 430417120#1 E5 E6 27849848#0 27849848#1 27849848#2 27849848#3 27849848#4 27849848#5 27849848#6 27849848#7 27849848#8"/>
    <route id="236838900#0_1_27393204#3_0.qPKW.30" edges="236838900#0 236838900#1 236838900#2 236838900#3 236838900#4 236838900#5 236838900#6 146940895 162258623#0 162258623#1 162258623#2 E7 E3 E4 430417122#0 430417122#1 430417122#2 27393204#0 27393204#1 27393204#2 27393204#3"/>
    <route id="236838900#0_1_27393204#3_1.qPKW.30" edges="236838900#0 236838900#1 236838900#2 236838900#3 236838900#4 236838900#5 236838900#6 146940895 162258623#0 162258623#1 162258623#2 E7 E3 E4 430417122#0 430417122#1 430417122#2 27393204#0 27393204#1 27393204#2 27393204#3"/>
    <route id="236838900#0_1_430418021_1.qPKW.30" edges="236838900#0 236838900#1 236838900#2 236838900#3 236838900#4 236838900#5 236838900#6 146940895 162258623#0 162258623#1 162258623#2 E7 E3 E4 965136261 27849856#0 27849856#1 430418021"/>
    <route id="E0_0_E2_0.qPKW.30" edges="E0 E0.564 E1 E2"/>
    <route id="E0_0_27393204#3_0.qPKW.30" edges="E0 E8 408322117#6.69 430417122#0 430417122#1 430417122#2 27393204#0 27393204#1 27393204#2 27393204#3"/>
    <route id="E0_0_430418021_0.qPKW.30" edges="E0 E8 408322117#6.69 965136261 27849856#0 27849856#1 430418021"/>
    <route id="E0_0_27849848#8_1.qPKW.30" edges="E0 E8 408322117#6.69 965136261 27849856#0 27849856#1 E5 E6 27849848#0 27849848#1 27849848#2 27849848#3 27849848#4 27849848#5 27849848#6 27849848#7 27849848#8"/>
    <route id="E0_1_E2_1.qPKW.30" edges="E0 E0.564 E1 E2"/>
    <route id="E0_2_E2_2.qPKW.30" edges="E0 E0.564 E1 E2"/>
    <route id="E0_3_E2_3.qPKW.30" edges="E0 E0.564 E1 E2"/>
    <route id="-E2_1_-E0_1.qPKW.35" edges="-E2 -E2.397 -E1 -E0"/>
    <route id="-E2_2_-E0_2.qPKW.35" edges="-E2 -E2.397 -E1 -E0"/>
    <route id="-E2_3_-E0_3.qPKW.35" edges="-E2 -E2.397 -E1 -E0"/>
    <route id="162959647#1_0_430418021_0.qPKW.35" edges="162959647#1 162959647#2 162959647#3 162959647#4 430417120#0 430417120#1 430418021"/>
    <route id="162959647#1_0_E2_0.qPKW.35" edges="162959647#1 162959647#2 162959647#3 162959647#4 430417120#0 430417120#1 E5 E2"/>
    <route id="162959647#1_0_E2_1.qPKW.35" edges="162959647#1 162959647#2 162959647#3 162959647#4 430417120#0 430417120#1 E5 E2"/>
    <route id="162959647#1_0_27849848#8_0.qPKW.35" edges="162959647#1 162959647#2 162959647#3 162959647#4 430417120#0 430417120#1 E5 E6 27849848#0 27849848#1 27849848#2 27849848#3 27849848#4 27849848#5 27849848#6 27849848#7 27849848#8"/>
    <route id="162959647#1_1_27849848#8_1.qPKW.35" edges="162959647#1 162959647#2 162959647#3 162959647#4 430417120#0 430417120#1 E5 E6 27849848#0 27849848#1 27849848#2 27849848#3 27849848#4 27849848#5 27849848#6 27849848#7 27849848#8"/>
    <route id="236838900#0_0_-E0_1.qPKW.35" edges="236838900#0 236838900#1 236838900#2 236838900#3 236838900#4 236838900#5 236838900#6 146940895 162258623#0 162258623#1 162258623#2 E7 E3 -E0"/>
    <route id="236838900#0_1_27393204#3_0.qPKW.35" edges="236838900#0 236838900#1 236838900#2 236838900#3 236838900#4 236838900#5 236838900#6 146940895 162258623#0 162258623#1 162258623#2 E7 E3 E4 430417122#0 430417122#1 430417122#2 27393204#0 27393204#1 27393204#2 27393204#3"/>
    <route id="236838900#0_1_27393204#3_1.qPKW.35" edges="236838900#0 236838900#1 236838900#2 236838900#3 236838900#4 236838900#5 236838900#6 146940895 162258623#0 162258623#1 162258623#2 E7 E3 E4 430417122#0 430417122#1 430417122#2 27393204#0 27393204#1 27393204#2 27393204#3"/>
    <route id="408322117#6_0_27393204#3_0.qPKW.35" edges="408322117#6 408322117#6.69 430417122#0 430417122#1 430417122#2 27393204#0 27393204#1 27393204#2 27393204#3"/>
    <route id="408322117#6_1_430418021_1.qPKW.35" edges="408322117#6 408322117#6.69 965136261 27849856#0 27849856#1 430418021"/>
    <route id="408322117#6_1_27849848#8_1.qPKW.35" edges="408322117#6 408322117#6.69 965136261 27849856#0 27849856#1 E5 E6 27849848#0 27849848#1 27849848#2 27849848#3 27849848#4 27849848#5 27849848#6 27849848#7 27849848#8"/>
    <route id="E0_0_27393204#3_0.qPKW.35" edges="E0 E8 408322117#6.69 430417122#0 430417122#1 430417122#2 27393204#0 27393204#1 27393204#2 27393204#3"/>
    <route id="E0_0_430418021_1.qPKW.35" edges="E0 E8 408322117#6.69 965136261 27849856#0 27849856#1 430418021"/>
    <route id="E0_1_E2_1.qPKW.35" edges="E0 E0.564 E1 E2"/>
    <route id="E0_2_E2_2.qPKW.35" edges="E0 E0.564 E1 E2"/>
    <route id="E0_3_E2_3.qPKW.35" edges="E0 E0.564 E1 E2"/>
    <route id="E9_1_27393204#3_1.qPKW.35" edges="E9 E9.22 146940890#3 135733473 135733471 E3 E4 430417122#0 430417122#1 430417122#2 27393204#0 27393204#1 27393204#2 27393204#3"/>
    <route id="E9_1_430418021_1.qPKW.35" edges="E9 E9.22 146940890#3 135733473 135733471 E3 E4 965136261 27849856#0 27849856#1 430418021"/>
    <route id="E9_1_-E0_3.qPKW.35" edges="E9 E9.22 146940890#3 135733473 135733471 E3 E4 965136261 27849856#0 27849856#1 E5 -E1 -E0"/>
    <route id="E9_1_E2_3.qPKW.35" edges="E9 E9.22 146940890#3 135733473 135733471 E3 E1 E2"/>
    <route id="-E2_1_-E0_1.qPKW.40" edges="-E2 -E2.397 -E1 -E0"/>
    <route id="-E2_2_-E0_2.qPKW.40" edges="-E2 -E2.397 -E1 -E0"/>
    <route id="-E2_3_-E0_3.qPKW.40" edges="-E2 -E2.397 -E1 -E0"/>
    <route id="162959647#1_0_E2_1.qPKW.40" edges="162959647#1 162959647#2 162959647#3 162959647#4 430417120#0 430417120#1 E5 E2"/>
    <route id="162959647#1_0_27849848#8_0.qPKW.40" edges="162959647#1 162959647#2 162959647#3 162959647#4 430417120#0 430417120#1 E5 E6 27849848#0 27849848#1 27849848#2 27849848#3 27849848#4 27849848#5 27849848#6 27849848#7 27849848#8"/>
    <route id="162959647#1_1_27849848#8_1.qPKW.40" edges="162959647#1 162959647#2 162959647#3 162959647#4 430417120#0 430417120#1 E5 E6 27849848#0 27849848#1 27849848#2 27849848#3 27849848#4 27849848#5 27849848#6 27849848#7 27849848#8"/>
    <route id="236838900#0_1_27393204#3_0.qPKW.40" edges="236838900#0 236838900#1 236838900#2 236838900#3 236838900#4 236838900#5 236838900#6 146940895 162258623#0 162258623#1 162258623#2 E7 E3 E4 430417122#0 430417122#1 430417122#2 27393204#0 27393204#1 27393204#2 27393204#3"/>
    <route id="236838900#0_1_27393204#3_1.qPKW.40" edges="236838900#0 236838900#1 236838900#2 236838900#3 236838900#4 236838900#5 236838900#6 146940895 162258623#0 162258623#1 162258623#2 E7 E3 E4 430417122#0 430417122#1 430417122#2 27393204#0 27393204#1 27393204#2 27393204#3"/>
    <route id="236838900#0_1_430418021_1.qPKW.40" edges="236838900#0 236838900#1 236838900#2 236838900#3 236838900#4 236838900#5 236838900#6 146940895 162258623#0 162258623#1 162258623#2 E7 E3 E4 965136261 27849856#0 27849856#1 430418021"/>
    <route id="E0_0_E2_0.qPKW.40" edges="E0 E0.564 E1 E2"/>
    <route id="E0_0_27393204#3_0.qPKW.40" edges="E0 E8 408322117#6.69 430417122#0 430417122#1 430417122#2 27393204#0 27393204#1 27393204#2 27393204#3"/>
    <route id="E0_0_430418021_0.qPKW.40" edges="E0 E8 408322117#6.69 965136261 27849856#0 27849856#1 430418021"/>
    <route id="E0_1_E2_1.qPKW.40" edges="E0 E0.564 E1 E2"/>
    <route id="E0_2_E2_2.qPKW.40" edges="E0 E0.564 E1 E2"/>
    <route id="E0_3_E2_3.qPKW.40" edges="E0 E0.564 E1 E2"/>
    <route id="E9_0_27849848#8_0.qPKW.40" edges="E9 E9.22 146940890#3 27849848#0 27849848#1 27849848#2 27849848#3 27849848#4 27849848#5 27849848#6 27849848#7 27849848#8"/>
    <route id="-E2_1_-E0_1.qPKW.45" edges="-E2 -E2.397 -E1 -E0"/>
    <route id="-E2_2_-E0_2.qPKW.45" edges="-E2 -E2.397 -E1 -E0"/>
    <route id="-E2_3_-E0_3.qPKW.45" edges="-E2 -E2.397 -E1 -E0"/>
    <route id="162959647#1_0_E2_1.qPKW.45" edges="162959647#1 162959647#2 162959647#3 162959647#4 430417120#0 430417120#1 E5 E2"/>
    <route id="162959647#1_1_27849848#8_1.qPKW.45" edges="162959647#1 162959647#2 162959647#3 162959647#4 430417120#0 430417120#1 E5 E6 27849848#0 27849848#1 27849848#2 27849848#3 27849848#4 27849848#5 27849848#6 27849848#7 27849848#8"/>
    <route id="236838900#0_0_-E0_1.qPKW.45" edges="236838900#0 236838900#1 236838900#2 236838900#3 236838900#4 236838900#5 236838900#6 146940895 162258623#0 162258623#1 162258623#2 E7 E3 -E0"/>
    <route id="236838900#0_0_-E0_2.qPKW.45" edges="236838900#0 236838900#1 236838900#2 236838900#3 236838900#4 236838900#5 236838900#6 146940895 162258623#0 162258623#1 162258623#2 E7 E3 -E0"/>
    <route id="236838900#0_1_27393204#3_0.qPKW.45" edges="236838900#0 236838900#1 236838900#2 236838900#3 236838900#4 236838900#5 236838900#6 146940895 162258623#0 162258623#1 162258623#2 E7 E3 E4 430417122#0 430417122#1 430417122#2 27393204#0 27393204#1 27393204#2 27393204#3"/>
    <route id="236838900#0_1_27393204#3_1.qPKW.45" edges="236838900#0 236838900#1 236838900#2 236838900#3 236838900#4 236838900#5 236838900#6 146940895 162258623#0 162258623#1 162258623#2 E7 E3 E4 430417122#0 430417122#1 430417122#2 27393204#0 27393204#1 27393204#2 27393204#3"/>
    <route id="236838900#0_1_430418021_1.qPKW.45" edges="236838900#0 236838900#1 236838900#2 236838900#3 236838900#4 236838900#5 236838900#6 146940895 162258623#0 162258623#1 162258623#2 E7 E3 E4 965136261 27849856#0 27849856#1 430418021"/>
    <route id="408322117#6_0_27393204#3_0.qPKW.45" edges="408322117#6 408322117#6.69 430417122#0 430417122#1 430417122#2 27393204#0 27393204#1 27393204#2 27393204#3"/>
    <route id="408322117#6_1_-E0_3.qPKW.45" edges="408322117#6 408322117#6.69 965136261 27849856#0 27849856#1 E5 -E1 -E0"/>
    <route id="E0_0_E2_0.qPKW.45" edges="E0 E0.564 E1 E2"/>
    <route id="E0_0_27393204#3_0.qPKW.45" edges="E0 E8 408322117#6.69 430417122#0 430417122#1 430417122#2 27393204#0 27393204#1 27393204#2 27393204#3"/>
    <route id="E0_0_27849848#8_1.qPKW.45" edges="E0 E8 408322117#6.69 965136261 27849856#0 27849856#1 E5 E6 27849848#0 27849848#1 27849848#2 27849848#3 27849848#4 27849848#5 27849848#6 27849848#7 27849848#8"/>
    <route id="E0_0_-E0_3.qPKW.45" edges="E0 E8 408322117#6.69 965136261 27849856#0 27849856#1 E5 -E1 -E0"/>
    <route id="E0_1_E2_1.qPKW.45" edges="E0 E0.564 E1 E2"/>
    <route id="E0_2_E2_2.qPKW.45" edges="E0 E0.564 E1 E2"/>
    <route id="E0_3_E2_3.qPKW.45" edges="E0 E0.564 E1 E2"/>
    <route id="E9_0_27849848#8_0.qPKW.45" edges="E9 E9.22 146940890#3 27849848#0 27849848#1 27849848#2 27849848#3 27849848#4 27849848#5 27849848#6 27849848#7 27849848#8"/>
    <route id="E9_1_E2_2.qPKW.45" edges="E9 E9.22 146940890#3 135733473 135733471 E3 E1 E2"/>
    <route id="E9_1_E2_3.qPKW.45" edges="E9 E9.22 146940890#3 135733473 135733471 E3 E1 E2"/>
    <route id="-E2_1_-E0_1.qPKW.50" edges="-E2 -E2.397 -E1 -E0"/>
    <route id="-E2_2_-E0_2.qPKW.50" edges="-E2 -E2.397 -E1 -E0"/>
    <route id="-E2_3_-E0_3.qPKW.50" edges="-E2 -E2.397 -E1 -E0"/>
    <route id="162959647#1_0_E2_0.qPKW.50" edges="162959647#1 162959647#2 162959647#3 162959647#4 430417120#0 430417120#1 E5 E2"/>
    <route id="162959647#1_0_27849848#8_0.qPKW.50" edges="162959647#1 162959647#2 162959647#3 162959647#4 430417120#0 430417120#1 E5 E6 27849848#0 27849848#1 27849848#2 27849848#3 27849848#4 27849848#5 27849848#6 27849848#7 27849848#8"/>
    <route id="162959647#1_1_-E0_2.qPKW.50" edges="162959647#1 162959647#2 162959647#3 162959647#4 430417120#0 430417120#1 E5 -E1 -E0"/>
    <route id="236838900#0_0_-E0_1.qPKW.50" edges="236838900#0 236838900#1 236838900#2 236838900#3 236838900#4 236838900#5 236838900#6 146940895 162258623#0 162258623#1 162258623#2 E7 E3 -E0"/>
    <route id="236838900#0_0_-E0_2.qPKW.50" edges="236838900#0 236838900#1 236838900#2 236838900#3 236838900#4 236838900#5 236838900#6 146940895 162258623#0 162258623#1 162258623#2 E7 E3 -E0"/>
    <route id="236838900#0_1_27393204#3_1.qPKW.50" edges="236838900#0 236838900#1 236838900#2 236838900#3 236838900#4 236838900#5 236838900#6 146940895 162258623#0 162258623#1 162258623#2 E7 E3 E4 430417122#0 430417122#1 430417122#2 27393204#0 27393204#1 27393204#2 27393204#3"/>
    <route id="236838900#0_1_430418021_1.qPKW.50" edges="236838900#0 236838900#1 236838900#2 236838900#3 236838900#4 236838900#5 236838900#6 146940895 162258623#0 162258623#1 162258623#2 E7 E3 E4 965136261 27849856#0 27849856#1 430418021"/>
    <route id="236838900#0_1_27849848#8_1.qPKW.50" edges="236838900#0 236838900#1 236838900#2 236838900#3 236838900#4 236838900#5 236838900#6 146940895 162258623#0 162258623#1 162258623#2 E7 E3 E4 965136261 27849856#0 27849856#1 E5 E6 27849848#0 27849848#1 27849848#2 27849848#3 27849848#4 27849848#5 27849848#6 27849848#7 27849848#8"/>