<?xml version="1.0" encoding="UTF-8"?>

<!-- generated on 2022-07-07 11:07:46 by Eclipse SUMO netedit Version v1_13_0+0432-58a1a6dbc81
<configuration xmlns:xsi="http://www.w3.org/2001/XMLSchema-instance" xsi:noNamespaceSchemaLocation="http://sumo.dlr.de/xsd/netconvertConfiguration.xsd">

    <input>
        <sumo-net-file value="/Users/ivansalenek/Documents/Учёба/SUMO/Final/Kuzminki/Program_1/check.net.xml"/>
    </input>

    <output>
        <output-file value="/Users/ivansalenek/Documents/Учёба/SUMO/Final/Kuzminki/program_1/program_1_1.net.xml"/>
    </output>

    <processing>
        <geometry.min-radius.fix.railways value="false"/>
        <geometry.max-grade.fix value="false"/>
        <offset.disable-normalization value="true"/>
        <lefthand value="false"/>
    </processing>

    <junctions>
        <no-turnarounds value="true"/>
        <junctions.corner-detail value="5"/>
        <junctions.limit-turn-speed value="5.5"/>
        <rectangular-lane-cut value="false"/>
    </junctions>

    <pedestrian>
        <walkingareas value="false"/>
    </pedestrian>

</configuration>
-->

<net version="1.9" junctionCornerDetail="5" limitTurnSpeed="5.50" xmlns:xsi="http://www.w3.org/2001/XMLSchema-instance" xsi:noNamespaceSchemaLocation="http://sumo.dlr.de/xsd/net_file.xsd">

    <location netOffset="-421557.51,-6173410.05" convBoundary="63.31,14.83,2218.08,1111.27" origBoundary="37.728612,55.699966,37.791475,55.714224" projParameter="+proj=utm +zone=37 +ellps=WGS84 +datum=WGS84 +units=m +no_defs"/>

    <edge id=":1042570013_0" function="internal">
        <lane id=":1042570013_0_0" index="0" disallow="tram rail_urban rail rail_electric rail_fast ship" speed="16.67" length="0.30" shape="951.69,593.04 951.39,593.12"/>
        <lane id=":1042570013_0_1" index="1" disallow="tram rail_urban rail rail_electric rail_fast ship" speed="16.67" length="0.30" shape="950.88,589.94 950.60,590.02"/>
    </edge>
    <edge id=":1042570035_0" function="internal">
        <lane id=":1042570035_0_0" index="0" disallow="tram rail_urban rail rail_electric rail_fast ship" speed="18.05" length="0.30" shape="820.52,645.80 820.44,645.51"/>
        <lane id=":1042570035_0_1" index="1" disallow="tram rail_urban rail rail_electric rail_fast ship" speed="18.05" length="0.30" shape="823.62,645.01 823.54,644.72"/>
    </edge>
    <edge id=":1042570081_0" function="internal">
        <lane id=":1042570081_0_0" index="0" disallow="tram rail_urban rail rail_electric rail_fast ship" speed="22.22" length="0.25" shape="841.69,739.04 841.62,738.74"/>
        <lane id=":1042570081_0_1" index="1" disallow="tram rail_urban rail rail_electric rail_fast ship" speed="22.22" length="0.25" shape="844.79,738.27 844.75,738.07"/>
    </edge>
    <edge id=":1338181092_0" function="internal">
        <lane id=":1338181092_0_0" index="0" disallow="tram rail_urban rail rail_electric rail_fast ship" speed="22.22" length="0.27" shape="757.96,406.73 757.88,406.40"/>
        <lane id=":1338181092_0_1" index="1" disallow="tram rail_urban rail rail_electric rail_fast ship" speed="22.22" length="0.27" shape="761.05,405.91 761.01,405.72"/>
    </edge>
    <edge id=":1338181098_0" function="internal">
        <lane id=":1338181098_0_0" index="0" disallow="tram rail_urban rail rail_electric rail_fast ship" speed="22.22" length="0.30" shape="755.84,322.54 755.86,322.23"/>
        <lane id=":1338181098_0_1" index="1" disallow="tram rail_urban rail rail_electric rail_fast ship" speed="22.22" length="0.30" shape="759.04,322.72 759.06,322.43"/>
    </edge>
    <edge id=":1436321829_0" function="internal">
        <lane id=":1436321829_0_0" index="0" disallow="tram rail_urban rail rail_electric rail_fast ship" speed="18.05" length="0.30" shape="1325.10,501.71 1324.81,501.78"/>
        <lane id=":1436321829_0_1" index="1" disallow="tram rail_urban rail rail_electric rail_fast ship" speed="18.05" length="0.30" shape="1324.35,498.60 1324.06,498.67"/>
    </edge>
    <edge id=":1436321852_0" function="internal">
        <lane id=":1436321852_0_0" index="0" disallow="tram rail_urban rail rail_electric rail_fast ship" speed="16.67" length="0.29" shape="994.15,690.42 994.21,690.67"/>
        <lane id=":1436321852_0_1" index="1" disallow="tram rail_urban rail rail_electric rail_fast ship" speed="16.67" length="0.29" shape="991.03,691.14 991.10,691.45"/>
    </edge>
    <edge id=":1436321866_0" function="internal">
        <lane id=":1436321866_0_0" index="0" disallow="tram rail_urban rail rail_electric rail_fast ship" speed="16.67" length="0.29" shape="1014.79,772.45 1014.87,772.75"/>
        <lane id=":1436321866_0_1" index="1" disallow="tram rail_urban rail rail_electric rail_fast ship" speed="16.67" length="0.29" shape="1011.69,773.25 1011.76,773.51"/>
    </edge>
    <edge id=":1568303770_0" function="internal">
        <lane id=":1568303770_0_0" index="0" disallow="tram rail_urban rail rail_electric rail_fast ship" speed="22.22" length="0.30" shape="786.62,514.46 786.55,514.17"/>
        <lane id=":1568303770_0_1" index="1" disallow="tram rail_urban rail rail_electric rail_fast ship" speed="22.22" length="0.30" shape="789.71,513.63 789.64,513.34"/>
    </edge>
    <edge id=":1568311476_0" function="internal">
        <lane id=":1568311476_0_0" index="0" disallow="tram rail_urban rail rail_electric rail_fast ship" speed="16.67" length="0.30" shape="930.02,427.52 930.10,427.80"/>
        <lane id=":1568311476_0_1" index="1" disallow="tram rail_urban rail rail_electric rail_fast ship" speed="16.67" length="0.30" shape="926.92,428.31 927.00,428.61"/>
    </edge>
    <edge id=":1568311485_0" function="internal">
        <lane id=":1568311485_0_0" index="0" disallow="tram rail_urban rail rail_electric rail_fast ship" speed="16.67" length="0.10" shape="909.88,348.31 909.88,348.31"/>
        <lane id=":1568311485_0_1" index="1" disallow="tram rail_urban rail rail_electric rail_fast ship" speed="16.67" length="0.10" shape="906.78,349.09 906.78,349.09"/>
    </edge>
    <edge id=":2295521244_0" function="internal">
        <lane id=":2295521244_0_0" index="0" disallow="tram rail_urban rail rail_electric rail_fast ship" speed="22.22" length="0.30" shape="793.27,539.34 793.20,539.05"/>
        <lane id=":2295521244_0_1" index="1" disallow="tram rail_urban rail rail_electric rail_fast ship" speed="22.22" length="0.30" shape="796.36,538.51 796.29,538.22"/>
    </edge>
    <edge id=":2295521246_0" function="internal">
        <lane id=":2295521246_0_0" index="0" disallow="tram rail_urban rail rail_electric rail_fast ship" speed="16.67" length="0.30" shape="948.15,491.85 948.23,492.15"/>
        <lane id=":2295521246_0_1" index="1" disallow="tram rail_urban rail rail_electric rail_fast ship" speed="16.67" length="0.30" shape="945.05,492.64 945.13,492.94"/>
        <lane id=":2295521246_0_2" index="2" disallow="tram rail_urban rail rail_electric rail_fast ship" speed="16.67" length="0.30" shape="941.95,493.44 942.03,493.73"/>
    </edge>
    <edge id=":2295521255_0" function="internal">
        <lane id=":2295521255_0_0" index="0" disallow="tram rail_urban rail rail_electric rail_fast ship" speed="22.22" length="0.24" shape="828.30,676.59 828.26,676.41"/>
        <lane id=":2295521255_0_1" index="1" disallow="tram rail_urban rail rail_electric rail_fast ship" speed="22.22" length="0.24" shape="831.43,675.92 831.36,675.63"/>
    </edge>
    <edge id=":2295521262_0" function="internal">
        <lane id=":2295521262_0_0" index="0" disallow="tram rail_urban rail rail_electric rail_fast ship" speed="16.67" length="0.29" shape="973.67,602.89 973.73,603.16"/>
        <lane id=":2295521262_0_1" index="1" disallow="tram rail_urban rail rail_electric rail_fast ship" speed="16.67" length="0.29" shape="970.55,603.58 970.62,603.89"/>
    </edge>
    <edge id=":2711117661_0" function="internal">
        <lane id=":2711117661_0_0" index="0" disallow="tram rail_urban rail rail_electric rail_fast ship" speed="22.22" length="0.29" shape="741.38,1071.64 741.51,1071.35"/>
        <lane id=":2711117661_0_1" index="1" disallow="tram rail_urban rail rail_electric rail_fast ship" speed="22.22" length="0.29" shape="744.32,1072.89 744.43,1072.64"/>
    </edge>
    <edge id=":300716777_0" function="internal">
        <lane id=":300716777_0_0" index="0" disallow="tram rail_urban rail rail_electric rail_fast ship" speed="22.22" length="0.50" shape="852.31,821.19 852.34,821.12 852.36,821.07 852.37,821.02 852.39,820.95"/>
        <lane id=":300716777_0_1" index="1" disallow="tram rail_urban rail rail_electric rail_fast ship" speed="22.22" length="0.50" shape="855.20,822.55 855.30,822.34 855.35,822.20 855.40,822.06 855.47,821.85"/>
    </edge>
    <edge id=":300716780_0" function="internal">
        <lane id=":300716780_0_0" index="0" disallow="tram rail_urban rail rail_electric rail_fast ship" speed="22.22" length="0.95" shape="855.60,809.92 855.64,809.79 855.66,809.69 855.66,809.60 855.66,809.45"/>
        <lane id=":300716780_0_1" index="1" disallow="tram rail_urban rail rail_electric rail_fast ship" speed="15.01" length="0.95" shape="858.67,810.82 858.79,810.41 858.85,810.12 858.87,809.83 858.86,809.41"/>
    </edge>
    <edge id=":305641859_0" function="internal">
        <lane id=":305641859_0_0" index="0" disallow="tram rail_urban rail rail_electric rail_fast ship" speed="18.05" length="14.47" shape="800.33,565.93 796.63,551.94"/>
        <lane id=":305641859_0_1" index="1" disallow="tram rail_urban rail rail_electric rail_fast ship" speed="18.05" length="14.47" shape="803.42,565.11 799.72,551.12"/>
    </edge>
    <edge id=":305641859_2" function="internal">
        <lane id=":305641859_2_0" index="0" disallow="tram rail_urban rail rail_electric rail_fast ship" speed="6.49" length="9.03" shape="803.42,565.11 803.14,562.65 803.71,560.70 805.15,559.25 807.44,558.31"/>
    </edge>
    <edge id=":305641859_3" function="internal">
        <lane id=":305641859_3_0" index="0" disallow="tram rail_urban rail rail_electric rail_fast ship" speed="6.48" length="9.03" shape="792.63,558.75 794.92,557.81 796.35,556.36 796.92,554.41 796.63,551.94"/>
    </edge>
    <edge id=":305641859_4" function="internal">
        <lane id=":305641859_4_0" index="0" disallow="tram rail_urban rail rail_electric rail_fast ship" speed="22.22" length="14.47" shape="792.63,558.75 806.65,555.20"/>
        <lane id=":305641859_4_1" index="1" disallow="tram rail_urban rail rail_electric rail_fast ship" speed="22.22" length="14.47" shape="793.41,561.85 807.44,558.31"/>
    </edge>
    <edge id=":305641880_0" function="internal">
        <lane id=":305641880_0_0" index="0" disallow="tram rail_urban rail rail_electric rail_fast ship" speed="6.51" length="9.03" shape="953.30,512.04 954.24,514.33 955.69,515.76 957.65,516.35 960.11,516.09"/>
    </edge>
    <edge id=":305641880_1" function="internal">
        <lane id=":305641880_1_0" index="0" disallow="tram rail_urban rail rail_electric rail_fast ship" speed="15.28" length="14.39" shape="953.30,512.04 956.85,526.00"/>
        <lane id=":305641880_1_1" index="1" disallow="tram rail_urban rail rail_electric rail_fast ship" speed="15.28" length="14.39" shape="950.20,512.83 953.74,526.78"/>
        <lane id=":305641880_1_2" index="2" disallow="tram rail_urban rail rail_electric rail_fast ship" speed="15.28" length="14.39" shape="947.10,513.62 950.64,527.57"/>
    </edge>
    <edge id=":305641880_4" function="internal">
        <lane id=":305641880_4_0" index="0" disallow="tram rail_urban rail rail_electric rail_fast ship" speed="22.22" length="17.60" shape="943.04,520.45 960.11,516.09"/>
        <lane id=":305641880_4_1" index="1" disallow="tram rail_urban rail rail_electric rail_fast ship" speed="22.22" length="17.60" shape="943.85,523.55 960.89,519.19"/>
    </edge>
    <edge id=":305641880_6" function="internal">
        <lane id=":305641880_6_0" index="0" disallow="tram rail_urban rail rail_electric rail_fast ship" speed="7.31" length="11.72" shape="943.85,523.55 947.66,522.92 950.58,523.25 952.61,524.54 953.74,526.78"/>
        <lane id=":305641880_6_1" index="1" disallow="tram rail_urban rail rail_electric rail_fast ship" speed="6.49" length="9.02" shape="943.85,523.55 946.30,523.27 948.25,523.85 949.70,525.28 950.64,527.57"/>
    </edge>
    <edge id=":305701204_0" function="internal">
        <lane id=":305701204_0_0" index="0" disallow="tram rail_urban rail rail_electric rail_fast ship" speed="7.67" length="12.91" shape="817.31,633.08 816.01,630.17 813.87,628.39 810.87,627.75 807.03,628.24"/>
    </edge>
    <edge id=":305701204_1" function="internal">
        <lane id=":305701204_1_0" index="0" speed="13.89" length="14.74" shape="817.31,633.08 815.77,629.00 814.00,626.46 812.24,623.92 810.72,619.83"/>
        <lane id=":305701204_1_1" index="1" speed="13.89" length="14.74" shape="820.42,632.30 818.87,628.22 817.11,625.69 815.35,623.16 813.83,619.07"/>
        <lane id=":305701204_1_2" index="2" speed="13.89" length="14.74" shape="820.42,632.30 816.94,618.31"/>
    </edge>
    <edge id=":305701204_4" function="internal">
        <lane id=":305701204_4_0" index="0" disallow="tram rail_urban rail rail_electric rail_fast ship" speed="19.45" length="20.87" shape="827.60,624.70 807.03,628.24"/>
    </edge>
    <edge id=":305701204_5" function="internal">
        <lane id=":305701204_5_0" index="0" disallow="tram rail_urban rail rail_electric rail_fast ship" speed="7.30" length="11.73" shape="826.81,621.60 822.99,622.21 820.08,621.87 818.06,620.57 816.94,618.31"/>
        <lane id=":305701204_5_1" index="1" disallow="tram rail_urban rail rail_electric rail_fast ship" speed="6.48" length="9.01" shape="826.81,621.60 824.35,621.87 822.40,621.28 820.97,619.84 820.05,617.55"/>
    </edge>
    <edge id=":305701206_0" function="internal">
        <lane id=":305701206_0_0" index="0" disallow="tram rail_urban rail rail_electric rail_fast ship" speed="7.00" length="10.44" shape="977.38,586.45 974.41,587.54 972.46,589.11 971.54,591.16 971.64,593.69"/>
    </edge>
    <edge id=":305701206_1" function="internal">
        <lane id=":305701206_1_0" index="0" disallow="tram rail_urban rail rail_electric rail_fast ship" speed="19.45" length="17.37" shape="977.38,586.45 960.57,590.71"/>
        <lane id=":305701206_1_1" index="1" disallow="tram rail_urban rail rail_electric rail_fast ship" speed="19.45" length="17.37" shape="976.62,583.34 959.76,587.61"/>
    </edge>
    <edge id=":305701206_3" function="internal">
        <lane id=":305701206_3_0" index="0" disallow="tram rail_urban rail rail_electric rail_fast ship" speed="15.28" length="14.51" shape="969.97,579.28 970.73,583.51 970.85,586.47 970.96,589.44 971.64,593.69"/>
        <lane id=":305701206_3_1" index="1" disallow="tram rail_urban rail rail_electric rail_fast ship" speed="15.28" length="14.51" shape="966.86,580.02 967.61,584.24 967.74,587.19 967.84,590.15 968.52,594.38"/>
    </edge>
    <edge id=":305701206_5" function="internal">
        <lane id=":305701206_5_0" index="0" disallow="tram rail_urban rail rail_electric rail_fast ship" speed="6.55" length="8.99" shape="963.75,580.76 963.99,583.24 963.40,585.20 961.99,586.66 959.76,587.61"/>
    </edge>
    <edge id=":3300107490_0" function="internal">
        <lane id=":3300107490_0_0" index="0" disallow="tram rail_urban rail rail_electric rail_fast ship" speed="16.67" length="0.29" shape="1051.30,916.34 1051.38,916.64"/>
        <lane id=":3300107490_0_1" index="1" disallow="tram rail_urban rail rail_electric rail_fast ship" speed="16.67" length="0.29" shape="1048.20,917.15 1048.27,917.42"/>
    </edge>
    <edge id=":3300107508_0" function="internal">
        <lane id=":3300107508_0_0" index="0" disallow="tram rail_urban rail rail_electric rail_fast ship" speed="16.67" length="0.29" shape="1063.03,963.24 1063.10,963.51"/>
        <lane id=":3300107508_0_1" index="1" disallow="tram rail_urban rail rail_electric rail_fast ship" speed="16.67" length="0.29" shape="1059.92,964.02 1060.00,964.32"/>
    </edge>
    <edge id=":3303590553_0" function="internal">
        <lane id=":3303590553_0_0" index="0" disallow="tram rail_urban rail rail_electric rail_fast ship" speed="22.22" length="0.29" shape="840.06,847.27 840.19,846.99"/>
        <lane id=":3303590553_0_1" index="1" disallow="tram rail_urban rail rail_electric rail_fast ship" speed="22.22" length="0.29" shape="842.98,848.59 843.09,848.35"/>
    </edge>
    <edge id=":3329602165_0" function="internal">
        <lane id=":3329602165_0_0" index="0" disallow="tram rail_urban rail rail_electric rail_fast ship" speed="16.67" length="0.29" shape="1033.90,849.88 1033.96,850.15"/>
        <lane id=":3329602165_0_1" index="1" disallow="tram rail_urban rail rail_electric rail_fast ship" speed="16.67" length="0.29" shape="1030.79,850.66 1030.87,850.96"/>
    </edge>
    <edge id=":3554383159_0" function="internal">
        <lane id=":3554383159_0_0" index="0" disallow="tram rail_urban rail rail_electric rail_fast ship" speed="16.67" length="0.30" shape="1012.33,762.87 1012.40,763.15"/>
        <lane id=":3554383159_0_1" index="1" disallow="tram rail_urban rail rail_electric rail_fast ship" speed="16.67" length="0.30" shape="1009.22,763.64 1009.30,763.94"/>
    </edge>
    <edge id=":3554384496_0" function="internal">
        <lane id=":3554384496_0_0" index="0" disallow="tram rail_urban rail rail_electric rail_fast ship" speed="16.67" length="0.24" shape="1017.11,781.96 1017.17,782.25"/>
        <lane id=":3554384496_0_1" index="1" disallow="tram rail_urban rail rail_electric rail_fast ship" speed="16.67" length="0.24" shape="1014.00,782.71 1014.04,782.88"/>
    </edge>
    <edge id=":4296987840_0" function="internal">
        <lane id=":4296987840_0_0" index="0" disallow="tram rail_urban rail rail_electric rail_fast ship" speed="16.67" length="8.21" shape="934.30,444.07 935.14,446.33 936.07,447.74 937.00,449.16 937.84,451.42"/>
        <lane id=":4296987840_0_1" index="1" disallow="tram rail_urban rail rail_electric rail_fast ship" speed="16.67" length="8.21" shape="931.20,444.87 932.04,447.13 932.97,448.54 933.90,449.96 934.74,452.22"/>
        <lane id=":4296987840_0_2" index="2" disallow="tram rail_urban rail rail_electric rail_fast ship" speed="16.67" length="8.21" shape="931.20,444.87 931.56,447.25 931.42,448.94 931.29,450.62 931.64,453.01"/>
    </edge>
    <edge id=":4296987841_0" function="internal">
        <lane id=":4296987841_0_0" index="0" disallow="tram rail_urban rail rail_electric rail_fast ship" speed="22.22" length="0.30" shape="783.47,502.64 783.40,502.35"/>
        <lane id=":4296987841_0_1" index="1" disallow="tram rail_urban rail rail_electric rail_fast ship" speed="22.22" length="0.30" shape="786.56,501.81 786.49,501.52"/>
    </edge>
    <edge id=":4831674985_0" function="internal">
        <lane id=":4831674985_0_0" index="0" disallow="tram rail_urban rail rail_electric rail_fast ship" speed="22.22" length="0.10" shape="758.19,1033.60 758.19,1033.60"/>
        <lane id=":4831674985_0_1" index="1" disallow="tram rail_urban rail rail_electric rail_fast ship" speed="22.22" length="0.10" shape="761.11,1034.90 761.11,1034.90"/>
    </edge>
    <edge id=":529656056_0" function="internal">
        <lane id=":529656056_0_0" index="0" disallow="tram rail_urban rail rail_electric rail_fast ship" speed="22.22" length="0.26" shape="818.19,895.95 818.31,895.66"/>
        <lane id=":529656056_0_1" index="1" disallow="tram rail_urban rail rail_electric rail_fast ship" speed="22.22" length="0.26" shape="821.15,897.18 821.23,896.98"/>
    </edge>
    <edge id=":593984057_0" function="internal">
        <lane id=":593984057_0_0" index="0" disallow="tram rail_urban rail rail_electric rail_fast ship" speed="22.22" length="0.28" shape="803.55,930.97 803.65,930.74"/>
        <lane id=":593984057_0_1" index="1" disallow="tram rail_urban rail rail_electric rail_fast ship" speed="22.22" length="0.28" shape="806.48,932.26 806.60,931.98"/>
    </edge>
    <edge id=":599038669_0" function="internal">
        <lane id=":599038669_0_0" index="0" disallow="tram rail_urban rail rail_electric rail_fast ship" speed="22.22" length="0.30" shape="826.02,667.47 825.95,667.19"/>
        <lane id=":599038669_0_1" index="1" disallow="tram rail_urban rail rail_electric rail_fast ship" speed="22.22" length="0.30" shape="829.13,666.70 829.05,666.40"/>
    </edge>
    <edge id=":6066401397_0" function="internal">
        <lane id=":6066401397_0_0" index="0" disallow="tram rail_urban rail rail_electric rail_fast ship" speed="22.22" length="0.30" shape="735.26,173.42 735.18,173.13"/>
        <lane id=":6066401397_0_1" index="1" disallow="tram rail_urban rail rail_electric rail_fast ship" speed="22.22" length="0.30" shape="738.36,172.61 738.28,172.32"/>
    </edge>
    <edge id=":6704308582_0" function="internal">
        <lane id=":6704308582_0_0" index="0" disallow="tram rail_urban rail rail_electric rail_fast ship" speed="22.22" length="0.10" shape="890.99,533.84 890.99,533.84"/>
        <lane id=":6704308582_0_1" index="1" disallow="tram rail_urban rail rail_electric rail_fast ship" speed="22.22" length="0.10" shape="891.77,536.94 891.77,536.94"/>
    </edge>
    <edge id=":670658318_0" function="internal">
        <lane id=":670658318_0_0" index="0" disallow="tram rail_urban rail rail_electric rail_fast ship" speed="22.22" length="0.30" shape="907.03,529.78 907.31,529.70"/>
        <lane id=":670658318_0_1" index="1" disallow="tram rail_urban rail rail_electric rail_fast ship" speed="22.22" length="0.30" shape="907.82,532.88 908.12,532.80"/>
    </edge>
    <edge id=":778170144_0" function="internal">
        <lane id=":778170144_0_0" index="0" disallow="tram rail_urban rail rail_electric rail_fast ship" speed="16.67" length="0.10" shape="881.64,237.28 881.64,237.28"/>
        <lane id=":778170144_0_1" index="1" disallow="tram rail_urban rail rail_electric rail_fast ship" speed="16.67" length="0.10" shape="878.54,238.06 878.54,238.06"/>
    </edge>
    <edge id=":J0_0" function="internal">
        <lane id=":J0_0_0" index="0" speed="10.19" length="10.30" shape="608.86,632.48 610.15,631.76 611.63,630.19 613.30,627.78 615.15,624.54"/>
        <lane id=":J0_0_1" index="1" speed="10.74" length="11.49" shape="608.86,632.48 611.90,631.45 614.43,630.03 616.46,628.23 617.98,626.04"/>
    </edge>
    <edge id=":J0_2" function="internal">
        <lane id=":J0_2_0" index="0" speed="13.89" length="12.19" shape="608.86,632.48 620.67,629.47"/>
        <lane id=":J0_2_1" index="1" speed="13.89" length="12.19" shape="609.65,635.58 621.46,632.57"/>
        <lane id=":J0_2_2" index="2" speed="13.89" length="12.19" shape="610.44,638.68 622.25,635.67"/>
        <lane id=":J0_2_3" index="3" speed="13.89" length="12.19" shape="611.23,641.78 623.04,638.77"/>
    </edge>
    <edge id=":J2_0" function="internal">
        <lane id=":J2_0_0" index="0" allow="bus" speed="6.49" length="9.03" shape="808.42,610.43 807.50,608.13 806.06,606.69 804.11,606.10 801.64,606.37"/>
        <lane id=":J2_0_1" index="1" speed="7.31" length="11.74" shape="808.42,610.43 807.16,606.77 805.48,604.36 803.38,603.19 800.85,603.27"/>
        <lane id=":J2_0_2" index="2" speed="8.08" length="14.60" shape="808.42,610.43 806.83,605.41 804.90,602.03 802.65,600.28 800.06,600.17"/>
    </edge>
    <edge id=":J2_3" function="internal">
        <lane id=":J2_3_0" index="0" speed="13.89" length="33.68" shape="811.53,609.67 803.25,577.05"/>
        <lane id=":J2_3_1" index="1" speed="13.89" length="33.68" shape="814.64,608.91 806.34,576.23"/>
    </edge>
    <edge id=":J2_5" function="internal">
        <lane id=":J2_5_0" index="0" speed="10.59" length="25.40" shape="814.64,608.91 812.90,599.56 812.84,592.57 814.47,587.95 817.77,585.70"/>
        <lane id=":J2_5_1" index="1" speed="9.57" length="20.54" shape="817.74,608.15 816.14,600.19 815.75,594.31 816.56,590.51 818.58,588.80"/>
    </edge>
    <edge id=":J2_7" function="internal">
        <lane id=":J2_7_0" index="0" allow="bus" speed="13.89" length="20.78" shape="821.78,601.19 801.64,606.37"/>
        <lane id=":J2_7_1" index="1" speed="13.89" length="20.78" shape="820.98,598.09 800.85,603.27"/>
        <lane id=":J2_7_2" index="2" speed="13.89" length="20.78" shape="820.18,594.99 800.06,600.17"/>
        <lane id=":J2_7_3" index="3" speed="13.89" length="20.78" shape="819.38,591.89 799.27,597.06"/>
    </edge>
    <edge id=":J2_11" function="internal">
        <lane id=":J2_11_0" index="0" speed="13.89" length="20.74" shape="796.10,584.66 816.17,579.50"/>
        <lane id=":J2_11_1" index="1" speed="13.89" length="20.74" shape="796.89,587.76 816.97,582.60"/>
        <lane id=":J2_11_2" index="2" speed="13.89" length="20.74" shape="797.68,590.86 817.77,585.70"/>
        <lane id=":J2_11_3" index="3" speed="13.89" length="20.74" shape="798.48,593.96 818.58,588.80"/>
    </edge>
    <edge id=":J3_0" function="internal">
        <lane id=":J3_0_0" index="0" allow="bus" speed="13.89" length="17.66" shape="971.72,562.47 954.65,566.79"/>
        <lane id=":J3_0_1" index="1" speed="13.89" length="17.66" shape="970.95,559.36 953.84,563.70"/>
        <lane id=":J3_0_2" index="2" speed="13.89" length="17.66" shape="970.18,556.25 953.04,560.60"/>
        <lane id=":J3_0_3" index="3" speed="13.89" length="17.66" shape="969.41,553.15 952.24,557.50"/>
    </edge>
    <edge id=":J3_4" function="internal">
        <lane id=":J3_4_0" index="0" speed="6.51" length="9.00" shape="959.55,536.66 960.49,538.94 961.93,540.38 963.88,540.97 966.33,540.72"/>
        <lane id=":J3_4_1" index="1" speed="7.33" length="11.68" shape="959.55,536.66 960.83,540.30 962.52,542.71 964.61,543.88 967.10,543.83"/>
    </edge>
    <edge id=":J3_6" function="internal">
        <lane id=":J3_6_0" index="0" speed="13.89" length="33.62" shape="959.55,536.66 967.60,569.35"/>
        <lane id=":J3_6_1" index="1" speed="13.89" length="33.62" shape="956.45,537.45 964.49,570.10"/>
        <lane id=":J3_6_2" index="2" speed="13.89" length="33.62" shape="953.35,538.24 961.38,570.84"/>
    </edge>
    <edge id=":J3_9" function="internal">
        <lane id=":J3_9_0" index="0" speed="10.19" length="23.60" shape="953.35,538.24 955.32,547.47 955.92,554.28 955.16,558.65 953.04,560.60"/>
        <lane id=":J3_9_1" index="1" speed="9.55" length="20.59" shape="953.35,538.24 954.97,546.12 955.33,551.96 954.42,555.75 952.24,557.50"/>
    </edge>
    <edge id=":J3_11" function="internal">
        <lane id=":J3_11_0" index="0" speed="13.89" length="17.79" shape="949.03,545.11 966.33,540.72"/>
        <lane id=":J3_11_1" index="1" speed="13.89" length="17.79" shape="949.83,548.21 967.10,543.83"/>
        <lane id=":J3_11_2" index="2" speed="13.89" length="17.79" shape="950.64,551.30 967.87,546.94"/>
        <lane id=":J3_11_3" index="3" speed="13.89" length="17.79" shape="951.44,554.40 968.64,550.04"/>
    </edge>
    <edge id=":J5_0" function="internal">
        <lane id=":J5_0_0" index="0" disallow="tram rail_urban rail rail_electric rail_fast ship" speed="22.22" length="12.18" shape="620.04,602.28 631.86,599.30"/>
        <lane id=":J5_0_1" index="1" disallow="tram rail_urban rail rail_electric rail_fast ship" speed="22.22" length="12.18" shape="620.83,605.38 632.64,602.40"/>
    </edge>
    <edge id=":J5_2" function="internal">
        <lane id=":J5_2_0" index="0" disallow="tram rail_urban rail rail_electric rail_fast ship" speed="11.33" length="12.92" shape="623.52,608.82 625.75,605.01 627.88,602.15 629.92,600.25 631.86,599.30"/>
        <lane id=":J5_2_1" index="1" disallow="tram rail_urban rail rail_electric rail_fast ship" speed="10.15" length="10.28" shape="626.34,610.32 628.19,607.08 629.86,604.68 631.34,603.12 632.64,602.40"/>
    </edge>
    <edge id=":J6_0" function="internal">
        <lane id=":J6_0_0" index="0" speed="9.01" length="9.67" shape="1372.52,463.13 1371.13,463.87 1369.74,465.39 1368.36,467.68 1367.00,470.75"/>
    </edge>
    <edge id=":J6_1" function="internal">
        <lane id=":J6_1_0" index="0" allow="bus" speed="13.89" length="11.98" shape="1372.52,463.13 1360.90,466.02"/>
    </edge>
    <edge id=":J6_2" function="internal">
        <lane id=":J6_2_0" index="0" speed="10.26" length="2.78" shape="1371.75,460.03 1369.62,461.03 1369.31,461.32"/>
    </edge>
    <edge id=":J6_3" function="internal">
        <lane id=":J6_3_0" index="0" speed="13.89" length="11.98" shape="1371.75,460.03 1360.13,462.91"/>
        <lane id=":J6_3_1" index="1" speed="13.89" length="11.98" shape="1370.98,456.92 1359.36,459.80"/>
        <lane id=":J6_3_2" index="2" speed="13.89" length="11.98" shape="1370.21,453.82 1358.59,456.70"/>
    </edge>
    <edge id=":J6_6" function="internal">
        <lane id=":J6_6_0" index="0" speed="10.26" length="9.91" shape="1369.31,461.32 1367.61,462.96 1365.75,465.81 1364.02,469.58"/>
    </edge>
    <edge id=":J8_0" function="internal">
        <lane id=":J8_0_0" index="0" speed="13.89" length="11.98" shape="1365.12,492.12 1353.47,494.91"/>
        <lane id=":J8_0_1" index="1" speed="13.89" length="11.98" shape="1364.38,489.00 1352.73,491.80"/>
    </edge>
    <edge id=":J8_2" function="internal">
        <lane id=":J8_2_0" index="0" speed="10.20" length="2.63" shape="1361.25,485.41 1360.15,487.80"/>
        <lane id=":J8_2_1" index="1" speed="8.95" length="5.10" shape="1358.27,484.24 1356.91,487.29 1356.00,488.80"/>
    </edge>
    <edge id=":J8_4" function="internal">
        <lane id=":J8_4_0" index="0" speed="10.20" length="10.06" shape="1360.15,487.80 1359.52,489.16 1357.65,492.00 1355.63,493.92 1353.47,494.91"/>
    </edge>
    <edge id=":J8_5" function="internal">
        <lane id=":J8_5_0" index="0" speed="8.95" length="4.53" shape="1356.00,488.80 1355.53,489.57 1354.14,491.07 1352.73,491.80"/>
    </edge>

    <edge id="-E0" from="J2" to="J1" priority="-1">
        <lane id="-E0_0" index="0" allow="bus" speed="13.89" length="759.17" shape="801.64,606.37 66.08,794.22"/>